<?xml version="1.0" encoding="UTF-8"?>

<!-- generated on 2025-12-31T23:19:08.455037+00:00 by Eclipse SUMO netedit 1.25.0
-->

<additional xmlns:xsi="http://www.w3.org/2001/XMLSchema-instance" xsi:noNamespaceSchemaLocation="http://sumo.dlr.de/xsd/additional_file.xsd">
    <!-- Detectors -->
    <laneAreaDetector id="Node1_2_EB_0" lane="Node1_2_EB_1" pos="100.00" length="29.00" period="300.00" file="e2_0.xml"/>
    <laneAreaDetector id="Node1_2_EB_1" lane="Node1_2_EB_2" pos="100.00" length="29.00" period="300.00" file="e2_1.xml"/>
    <laneAreaDetector id="Node1_2_EB_2" lane="Node1_2_EB_3" pos="100.00" length="29.00" period="300.00" file="e2_2.xml"/>
    <laneAreaDetector id="Node2_5_SB_0" lane="Node2_5_NB_1" pos="52.25" length="20.00" period="300.00" file="e2_4.xml"/>
    <laneAreaDetector id="Node2_5_SB_1" lane="Node2_5_NB_2" pos="52.69" length="20.00" period="300.00" file="e2_5.xml"/>
    <laneAreaDetector id="Node2_5_SB_2" lane="Node2_5_NB_3" pos="52.82" length="20.00" period="300.00" file="e2_6.xml"/>
    <laneAreaDetector id="Node2_7_SB_0" lane="Node2_7_SB_1" pos="43.00" length="20.00" period="300.00" file="e2_3.xml"/>
    <laneAreaDetector id="Node2_7_SB_1" lane="Node2_7_SB_2" pos="43.00" length="20.00" period="300.00" file="e2_4.xml"/>
    <laneAreaDetector id="Node2_7_SB_2" lane="Node2_7_SB_3" pos="43.00" length="20.00" period="300.00" file="e2_5.xml"/>
    <laneAreaDetector id="Node3_2_EB_0" lane="Node2_3_WB_1" pos="85.00" length="23.00" period="300.00" file="e2_1.xml"/>
    <laneAreaDetector id="Node3_2_EB_1" lane="Node2_3_WB_2" pos="85.00" length="23.00" period="300.00" file="e2_0.xml"/>
    <laneAreaDetector id="Node3_2_EB_2" lane="Node2_3_WB_3" pos="85.00" length="23.00" period="300.00" file="e2_3.xml"/>
</additional>
