<?xml version="1.0" encoding="UTF-8"?>

<!-- generated on 2026-01-01T00:32:37.030343+00:00 by Eclipse SUMO netedit 1.25.0
<neteditConfiguration xmlns:xsi="http://www.w3.org/2001/XMLSchema-instance" xsi:noNamespaceSchemaLocation="http://sumo.dlr.de/xsd/neteditConfiguration.xsd">

    <input>
        <sumocfg-file value="C:\Users\DELL\Desktop\Projects\Projet IA &amp; Traitement d&apos;image\IA\v2\RL.sumocfg"/>
        <additional-files value="C:\Users\DELL\Desktop\Projects\Projet IA &amp; Traitement d&apos;image\IA\v2\RL.add.xml"/>
        <route-files value="C:\Users\DELL\Desktop\Projects\Projet IA &amp; Traitement d&apos;image\IA\v2\RL.rou.xml"/>
        <sumo-net-file value="C:\Users\DELL\Desktop\Projects\Projet IA &amp; Traitement d&apos;image\IA\v2\RL.net.xml"/>
    </input>

    <output>
        <output-file value="C:\Users\DELL\Desktop\Projects\Projet IA &amp; Traitement d&apos;image\IA\v2\RL.net.xml"/>
        <output.street-names value="true"/>
    </output>

    <processing>
        <geometry.min-radius.fix.railways value="false"/>
        <geometry.avoid-overlap value="false"/>
        <geometry.max-grade.fix value="false"/>
        <offset.disable-normalization value="true"/>
        <lefthand value="0"/>
    </processing>

    <junctions>
        <no-internal-links value="false"/>
        <no-turnarounds value="true"/>
        <junctions.corner-detail value="5"/>
        <junctions.limit-turn-speed value="5.50"/>
        <rectangular-lane-cut value="0"/>
    </junctions>

    <pedestrian>
        <walkingareas value="true"/>
    </pedestrian>

    <netedit>
        <ignore.routeelements value="false"/>
    </netedit>

</neteditConfiguration>
-->

<net version="1.20" junctionCornerDetail="5" walkingareas="true" limitTurnSpeed="5.50" avoidOverlap="0" xmlns:xsi="http://www.w3.org/2001/XMLSchema-instance" xsi:noNamespaceSchemaLocation="http://sumo.dlr.de/xsd/net_file.xsd">

    <location netOffset="0.00,0.00" convBoundary="27.27,-90.26,321.63,88.59" origBoundary="-10000000000.00,-10000000000.00,10000000000.00,10000000000.00" projParameter="!"/>

    <edge id=":Node1_0" function="internal">
        <lane id=":Node1_0_0" index="0" disallow="pedestrian" speed="11.71" length="32.35" shape="39.30,19.60 30.48,18.40 24.25,14.66 20.61,8.36 19.57,-0.48"/>
        <lane id=":Node1_0_1" index="1" disallow="pedestrian" speed="10.74" length="27.06" shape="39.28,16.40 31.90,15.40 26.69,12.26 23.64,7.00 22.77,-0.40"/>
        <lane id=":Node1_0_2" index="2" disallow="pedestrian" speed="9.68" length="21.78" shape="39.26,13.20 33.32,12.39 29.12,9.87 26.67,5.63 25.96,-0.32"/>
    </edge>
    <edge id=":Node1_3" function="internal">
        <lane id=":Node1_3_0" index="0" disallow="pedestrian" speed="5.36" length="5.94" shape="35.56,-0.09 35.75,1.54 36.42,2.69 37.57,3.38 39.19,3.60"/>
        <lane id=":Node1_3_1" index="1" disallow="pedestrian" speed="7.10" length="11.22" shape="32.36,-0.16 32.73,2.90 33.99,5.09 36.15,6.39 39.21,6.80"/>
        <lane id=":Node1_3_2" index="2" disallow="pedestrian" speed="8.49" length="16.50" shape="29.16,-0.24 29.70,4.27 31.55,7.48 34.73,9.39 39.23,10.00"/>
    </edge>
    <edge id=":Node1_w0" function="walkingarea">
        <lane id=":Node1_w0_0" index="0" allow="pedestrian" speed="2.78" length="31.89" width="2.00" shape="17.97,-0.52 15.97,-0.57 17.00,4.28 19.95,9.56 24.23,14.67 29.27,19.04 34.50,22.08 39.33,23.20 39.32,21.20 32.64,20.64 27.22,18.86 23.04,15.85 20.10,11.62 18.41,6.16"/>
    </edge>
    <edge id=":Node1_w1" function="walkingarea">
        <lane id=":Node1_w1_0" index="0" allow="pedestrian" speed="2.78" length="1.44" width="2.00" shape="39.17,2.00 39.16,0.00 37.16,-0.05 37.20,0.58 37.36,1.10 37.64,1.50 38.03,1.78 38.55,1.95"/>
    </edge>
    <edge id=":Node2_0" function="internal">
        <lane id=":Node2_0_0" index="0" disallow="pedestrian" speed="6.70" length="5.21" shape="177.01,24.60 176.59,21.97 175.47,20.10 175.16,19.91"/>
    </edge>
    <edge id=":Node2_1" function="internal">
        <lane id=":Node2_1_0" index="0" disallow="pedestrian" speed="13.89" length="27.54" shape="177.01,24.60 176.60,-3.00"/>
        <lane id=":Node2_1_1" index="1" disallow="pedestrian" speed="13.89" length="27.54" shape="180.21,24.52 179.80,-3.02"/>
        <lane id=":Node2_1_2" index="2" disallow="pedestrian" speed="13.89" length="27.54" shape="183.41,24.44 183.00,-3.03"/>
    </edge>
    <edge id=":Node2_4" function="internal">
        <lane id=":Node2_4_0" index="0" disallow="pedestrian" speed="10.34" length="5.37" shape="183.41,24.44 184.04,19.11"/>
    </edge>
    <edge id=":Node2_26" function="internal">
        <lane id=":Node2_26_0" index="0" disallow="pedestrian" speed="6.70" length="4.30" shape="175.16,19.91 173.66,18.99 171.15,18.63"/>
    </edge>
    <edge id=":Node2_27" function="internal">
        <lane id=":Node2_27_0" index="0" disallow="pedestrian" speed="10.34" length="19.49" shape="184.04,19.11 184.21,17.66 187.00,12.80 191.77,9.89 198.53,8.91"/>
    </edge>
    <edge id=":Node2_5" function="internal">
        <lane id=":Node2_5_0" index="0" disallow="pedestrian" speed="6.48" length="4.83" shape="198.55,18.51 196.07,18.87 194.32,19.93 194.19,20.17"/>
    </edge>
    <edge id=":Node2_6" function="internal">
        <lane id=":Node2_6_0" index="0" disallow="pedestrian" speed="13.89" length="27.42" shape="198.55,18.51 171.15,18.63"/>
        <lane id=":Node2_6_1" index="1" disallow="pedestrian" speed="13.89" length="27.42" shape="198.54,15.31 171.13,15.43"/>
        <lane id=":Node2_6_2" index="2" disallow="pedestrian" speed="13.89" length="27.42" shape="198.54,12.11 171.10,12.23"/>
    </edge>
    <edge id=":Node2_9" function="internal">
        <lane id=":Node2_9_0" index="0" disallow="pedestrian" speed="10.42" length="5.02" shape="198.54,12.11 193.57,11.42"/>
    </edge>
    <edge id=":Node2_28" function="internal">
        <lane id=":Node2_28_0" index="0" disallow="pedestrian" speed="6.48" length="4.28" shape="194.19,20.17 193.30,21.71 193.01,24.20"/>
    </edge>
    <edge id=":Node2_29" function="internal">
        <lane id=":Node2_29_0" index="0" disallow="pedestrian" speed="10.42" length="19.71" shape="193.57,11.42 191.77,11.17 186.92,8.34 183.99,3.60 183.00,-3.03"/>
    </edge>
    <edge id=":Node2_10" function="internal">
        <lane id=":Node2_10_0" index="0" disallow="pedestrian" speed="6.59" length="5.04" shape="192.60,-3.08 192.98,-0.63 194.09,1.12 194.52,1.36"/>
        <lane id=":Node2_10_1" index="1" disallow="pedestrian" speed="8.16" length="9.83" shape="192.60,-3.08 192.99,2.17 194.11,5.92 194.53,6.43"/>
    </edge>
    <edge id=":Node2_12" function="internal">
        <lane id=":Node2_12_0" index="0" disallow="pedestrian" speed="13.89" length="27.28" shape="192.60,-3.08 193.01,24.20"/>
    </edge>
    <edge id=":Node2_13" function="internal">
        <lane id=":Node2_13_0" index="0" disallow="pedestrian" speed="8.07" length="4.10" shape="189.40,-3.06 189.98,0.78 190.09,0.96"/>
    </edge>
    <edge id=":Node2_14" function="internal">
        <lane id=":Node2_14_0" index="0" disallow="pedestrian" speed="13.89" length="27.34" shape="189.40,-3.06 189.81,24.28"/>
    </edge>
    <edge id=":Node2_15" function="internal">
        <lane id=":Node2_15_0" index="0" disallow="pedestrian" speed="11.84" length="15.13" shape="189.40,-3.06 188.29,6.38 185.76,11.41"/>
        <lane id=":Node2_15_1" index="1" disallow="pedestrian" speed="11.36" length="13.11" shape="189.40,-3.06 188.29,4.98 185.74,9.28"/>
    </edge>
    <edge id=":Node2_17" function="internal">
        <lane id=":Node2_17_0" index="0" disallow="pedestrian" speed="13.89" length="27.41" shape="186.20,-3.05 186.61,24.36"/>
    </edge>
    <edge id=":Node2_18" function="internal">
        <lane id=":Node2_18_0" index="0" disallow="pedestrian" speed="10.37" length="4.68" shape="186.20,-3.05 185.56,1.59"/>
    </edge>
    <edge id=":Node2_30" function="internal">
        <lane id=":Node2_30_0" index="0" disallow="pedestrian" speed="6.59" length="4.24" shape="194.52,1.36 195.94,2.16 198.52,2.51"/>
        <lane id=":Node2_30_1" index="0" disallow="pedestrian" speed="8.16" length="4.93" shape="194.53,6.43 195.96,8.16 198.53,8.91"/>
    </edge>
    <edge id=":Node2_31" function="internal">
        <lane id=":Node2_31_0" index="0" disallow="pedestrian" speed="8.07" length="10.33" shape="190.09,0.96 191.70,3.52 194.55,5.16 198.53,5.71"/>
    </edge>
    <edge id=":Node2_32" function="internal">
        <lane id=":Node2_32_0" index="0" disallow="pedestrian" speed="11.84" length="17.11" shape="185.76,11.41 184.89,13.14 179.17,17.22 171.15,18.63"/>
        <lane id=":Node2_32_1" index="0" disallow="pedestrian" speed="11.36" length="16.51" shape="185.74,9.28 184.87,10.74 179.15,14.22 171.13,15.43"/>
    </edge>
    <edge id=":Node2_33" function="internal">
        <lane id=":Node2_33_0" index="0" disallow="pedestrian" speed="10.37" length="19.79" shape="185.56,1.59 185.28,3.60 182.46,8.36 177.73,11.23 171.10,12.23"/>
    </edge>
    <edge id=":Node2_19" function="internal">
        <lane id=":Node2_19_0" index="0" disallow="pedestrian" speed="6.51" length="4.74" shape="171.03,2.63 173.48,2.26 175.22,1.20 175.34,1.00"/>
        <lane id=":Node2_19_1" index="1" disallow="pedestrian" speed="8.10" length="9.46" shape="171.03,2.63 176.28,2.24 180.02,1.17 180.26,0.98"/>
    </edge>
    <edge id=":Node2_21" function="internal">
        <lane id=":Node2_21_0" index="0" disallow="pedestrian" speed="13.89" length="27.49" shape="171.03,2.63 198.52,2.51"/>
    </edge>
    <edge id=":Node2_22" function="internal">
        <lane id=":Node2_22_0" index="0" disallow="pedestrian" speed="8.00" length="4.04" shape="171.06,5.83 174.90,5.25 175.03,5.17"/>
    </edge>
    <edge id=":Node2_23" function="internal">
        <lane id=":Node2_23_0" index="0" disallow="pedestrian" speed="13.89" length="27.46" shape="171.06,5.83 198.53,5.71"/>
        <lane id=":Node2_23_1" index="1" disallow="pedestrian" speed="13.89" length="27.46" shape="171.08,9.03 198.53,8.91"/>
    </edge>
    <edge id=":Node2_25" function="internal">
        <lane id=":Node2_25_0" index="0" disallow="pedestrian" speed="10.49" length="5.03" shape="171.08,9.03 176.06,9.72"/>
    </edge>
    <edge id=":Node2_34" function="internal">
        <lane id=":Node2_34_0" index="0" disallow="pedestrian" speed="6.51" length="4.28" shape="175.34,1.00 176.26,-0.55 176.60,-3.00"/>
        <lane id=":Node2_34_1" index="0" disallow="pedestrian" speed="8.10" length="5.09" shape="180.26,0.98 182.26,-0.59 183.00,-3.03"/>
    </edge>
    <edge id=":Node2_35" function="internal">
        <lane id=":Node2_35_0" index="0" disallow="pedestrian" speed="8.00" length="10.13" shape="175.03,5.17 177.63,3.59 179.27,0.83 179.80,-3.02"/>
    </edge>
    <edge id=":Node2_36" function="internal">
        <lane id=":Node2_36_0" index="0" disallow="pedestrian" speed="10.49" length="19.76" shape="176.06,9.72 177.73,9.95 182.53,12.81 185.49,17.61 186.61,24.36"/>
    </edge>
    <edge id=":Node2_c0" function="crossing" crossingEdges="Node7_7_NB Node2_7_SB">
        <lane id=":Node2_c0_0" index="0" allow="pedestrian" speed="2.78" length="19.20" width="4.00" shape="194.56,22.16 175.36,22.64" outlineShape="194.61,24.16 175.41,24.64 175.26,23.29 174.89,22.18 174.29,21.32 173.47,20.71 175.31,20.65 194.51,20.16 196.62,20.46 196.32,20.56 195.54,21.12 195.00,21.91 194.69,22.92"/>
    </edge>
    <edge id=":Node2_c1" function="crossing" crossingEdges="Node2_3_EB Node2_3_WB">
        <lane id=":Node2_c1_0" index="0" allow="pedestrian" speed="2.78" length="19.20" width="4.00" shape="196.52,0.91 196.55,20.11" outlineShape="198.52,0.91 198.55,20.11 198.55,20.21 197.32,20.22 196.32,20.56 195.54,21.12 195.00,21.91 194.90,22.22 194.55,20.11 194.52,0.91 194.59,-1.11 194.69,-0.86 195.29,-0.09 196.13,0.47 197.20,0.80"/>
    </edge>
    <edge id=":Node2_c2" function="crossing" crossingEdges="Node2_5_SB Node2_5_NB">
        <lane id=":Node2_c2_0" index="0" allow="pedestrian" speed="2.78" length="19.20" width="4.00" shape="175.01,-0.99 194.21,-1.08" outlineShape="175.00,-2.99 194.20,-3.08 194.32,-1.86 194.69,-0.86 195.29,-0.09 196.13,0.47 196.33,0.53 194.22,0.92 175.02,1.01 172.90,0.68 173.24,0.57 174.01,0.01 174.56,-0.77 174.89,-1.77"/>
    </edge>
    <edge id=":Node2_c3" function="crossing" crossingEdges="Node1_2_WB Node1_2_EB">
        <lane id=":Node2_c3_0" index="0" allow="pedestrian" speed="2.78" length="19.20" width="4.00" shape="173.16,20.22 173.02,1.02" outlineShape="171.16,20.23 171.02,1.03 175.00,-2.99 173.00,-2.98 171.01,-0.97 171.02,1.03 174.99,-3.00 175.18,23.05 174.89,22.18 174.29,21.32 173.47,20.71 172.43,20.34"/>
    </edge>
    <edge id=":Node2_w0" function="walkingarea">
        <lane id=":Node2_w0_0" index="0" allow="pedestrian" speed="2.78" length="3.59" width="4.00" shape="171.16,20.23 171.18,22.23 173.41,24.69 175.41,24.64 175.26,23.29 174.89,22.18 174.29,21.32 173.47,20.71 172.43,20.34"/>
    </edge>
    <edge id=":Node2_w1" function="walkingarea">
        <lane id=":Node2_w1_0" index="0" allow="pedestrian" speed="2.78" length="3.30" width="4.00" shape="194.61,24.16 196.61,24.11 198.56,22.11 198.55,20.11 197.32,20.22 196.32,20.56 195.54,21.12 195.00,21.91 194.69,22.92"/>
    </edge>
    <edge id=":Node2_w2" function="walkingarea">
        <lane id=":Node2_w2_0" index="0" allow="pedestrian" speed="2.78" length="3.44" width="4.00" shape="198.52,0.91 198.52,-1.09 196.20,-3.09 194.20,-3.08 194.32,-1.86 194.69,-0.86 195.29,-0.09 196.13,0.47 197.20,0.80"/>
    </edge>
    <edge id=":Node2_w3" function="walkingarea">
        <lane id=":Node2_w3_0" index="0" allow="pedestrian" speed="2.78" length="3.30" width="4.00" shape="175.00,-2.99 173.00,-2.98 171.01,-0.97 171.02,1.03 172.24,0.91 173.24,0.57 174.01,0.01 174.56,-0.77 174.89,-1.77"/>
    </edge>
    <edge id=":Node3_0" function="internal">
        <lane id=":Node3_0_0" index="0" disallow="pedestrian" speed="11.72" length="31.09" shape="327.78,-0.87 326.40,7.51 322.68,13.51 316.62,17.11 308.21,18.32"/>
        <lane id=":Node3_0_1" index="1" disallow="pedestrian" speed="10.75" length="26.02" shape="324.58,-0.94 323.43,6.08 320.32,11.09 315.24,14.11 308.21,15.12"/>
        <lane id=":Node3_0_2" index="2" disallow="pedestrian" speed="9.69" length="20.94" shape="321.38,-1.00 320.45,4.64 317.95,8.68 313.86,11.10 308.20,11.92"/>
    </edge>
    <edge id=":Node3_3" function="internal">
        <lane id=":Node3_3_0" index="0" disallow="pedestrian" speed="5.37" length="5.71" shape="308.19,2.32 309.73,2.10 310.84,1.44 311.53,0.33 311.78,-1.21"/>
        <lane id=":Node3_3_1" index="1" disallow="pedestrian" speed="7.11" length="10.79" shape="308.19,5.52 311.11,5.10 313.21,3.85 314.50,1.77 314.98,-1.14"/>
        <lane id=":Node3_3_2" index="2" disallow="pedestrian" speed="8.50" length="15.86" shape="308.20,8.72 312.49,8.10 315.58,6.26 317.48,3.21 318.18,-1.07"/>
    </edge>
    <edge id=":Node3_w0" function="walkingarea">
        <lane id=":Node3_w0_0" index="0" allow="pedestrian" speed="2.78" length="31.04" width="2.00" shape="308.22,19.92 308.22,21.92 315.16,21.28 320.87,19.38 325.35,16.22 328.59,11.81 330.60,6.13 331.37,-0.80 329.38,-0.84 328.67,5.50 326.83,10.68 323.87,14.71 319.78,17.60 314.56,19.33"/>
    </edge>
    <edge id=":Node3_w1" function="walkingarea">
        <lane id=":Node3_w1_0" index="0" allow="pedestrian" speed="2.78" length="1.40" width="2.00" shape="310.18,-1.24 308.18,-1.28 308.18,0.72 308.78,0.66 309.27,0.50 309.66,0.23 309.94,-0.15 310.11,-0.64"/>
    </edge>
    <edge id=":Node4_0" function="internal">
        <lane id=":Node4_0_0" index="0" disallow="pedestrian" speed="5.37" length="5.64" shape="40.98,-80.00 39.46,-79.76 38.36,-79.09 37.69,-78.00 37.43,-76.49"/>
        <lane id=":Node4_0_1" index="1" disallow="pedestrian" speed="7.11" length="10.65" shape="40.93,-83.20 38.06,-82.74 35.99,-81.49 34.71,-79.43 34.24,-76.56"/>
        <lane id=":Node4_0_2" index="2" disallow="pedestrian" speed="8.50" length="15.66" shape="40.88,-86.40 36.66,-85.73 33.61,-83.88 31.74,-80.85 31.04,-76.64"/>
    </edge>
    <edge id=":Node4_3" function="internal">
        <lane id=":Node4_3_0" index="0" disallow="pedestrian" speed="11.72" length="30.70" shape="21.44,-76.88 22.82,-85.13 26.49,-91.07 32.46,-94.69 40.72,-95.99"/>
        <lane id=":Node4_3_1" index="1" disallow="pedestrian" speed="10.76" length="25.68" shape="24.64,-76.80 25.79,-83.70 28.87,-88.67 33.86,-91.70 40.77,-92.80"/>
        <lane id=":Node4_3_2" index="2" disallow="pedestrian" speed="9.70" length="20.67" shape="27.84,-76.72 28.77,-82.28 31.24,-86.28 35.26,-88.72 40.82,-89.60"/>
    </edge>
    <edge id=":Node4_w0" function="walkingarea">
        <lane id=":Node4_w0_0" index="0" allow="pedestrian" speed="2.78" length="1.39" width="2.00" shape="39.03,-76.45 41.03,-76.40 41.00,-78.40 40.41,-78.33 39.93,-78.17 39.55,-77.89 39.27,-77.52 39.10,-77.03"/>
    </edge>
    <edge id=":Node4_w1" function="walkingarea">
        <lane id=":Node4_w1_0" index="0" allow="pedestrian" speed="2.78" length="30.76" width="2.00" shape="40.70,-97.59 40.67,-99.59 33.84,-98.87 28.23,-96.92 23.82,-93.76 20.62,-89.38 18.63,-83.78 17.84,-76.97 19.84,-76.92 20.56,-83.15 22.38,-88.26 25.30,-92.26 29.33,-95.15 34.46,-96.93"/>
    </edge>
    <edge id=":Node5_0" function="internal">
        <lane id=":Node5_0_0" index="0" disallow="pedestrian" speed="6.49" length="9.07" shape="176.25,-76.49 175.89,-78.96 174.82,-80.70 173.06,-81.73 170.59,-82.04"/>
    </edge>
    <edge id=":Node5_1" function="internal">
        <lane id=":Node5_1_0" index="0" disallow="pedestrian" speed="11.36" length="29.87" shape="179.45,-76.51 180.58,-84.63 184.03,-90.42 189.81,-93.87 197.93,-94.99"/>
        <lane id=":Node5_1_1" index="1" disallow="pedestrian" speed="10.36" length="24.67" shape="182.65,-76.52 183.58,-83.23 186.43,-88.01 191.21,-90.87 197.91,-91.79"/>
    </edge>
    <edge id=":Node5_3" function="internal">
        <lane id=":Node5_3_0" index="0" disallow="pedestrian" speed="6.50" length="9.08" shape="197.86,-82.19 195.40,-81.85 193.64,-80.80 192.59,-79.04 192.25,-76.57"/>
    </edge>
    <edge id=":Node5_4" function="internal">
        <lane id=":Node5_4_0" index="0" disallow="pedestrian" speed="13.89" length="27.34" shape="197.86,-82.19 170.59,-82.04"/>
        <lane id=":Node5_4_1" index="1" disallow="pedestrian" speed="13.89" length="27.34" shape="197.88,-85.39 170.54,-85.24"/>
        <lane id=":Node5_4_2" index="2" disallow="pedestrian" speed="13.89" length="27.34" shape="197.90,-88.59 170.49,-88.44"/>
    </edge>
    <edge id=":Node5_7" function="internal">
        <lane id=":Node5_7_0" index="0" disallow="pedestrian" speed="13.89" length="27.54" shape="170.34,-98.04 197.94,-98.19"/>
        <lane id=":Node5_7_1" index="1" disallow="pedestrian" speed="13.89" length="27.54" shape="170.39,-94.84 197.93,-94.99"/>
        <lane id=":Node5_7_2" index="2" disallow="pedestrian" speed="13.89" length="27.54" shape="170.44,-91.64 197.91,-91.79"/>
    </edge>
    <edge id=":Node5_10" function="internal">
        <lane id=":Node5_10_0" index="0" disallow="pedestrian" speed="10.87" length="6.56" shape="170.44,-91.64 176.96,-90.97"/>
        <lane id=":Node5_10_1" index="1" disallow="pedestrian" speed="10.35" length="5.39" shape="170.44,-91.64 175.78,-90.96"/>
    </edge>
    <edge id=":Node5_12" function="internal">
        <lane id=":Node5_12_0" index="0" disallow="pedestrian" speed="10.87" length="20.76" shape="176.96,-90.97 178.55,-90.81 184.36,-88.02 187.86,-83.26 189.05,-76.55"/>
        <lane id=":Node5_12_1" index="0" disallow="pedestrian" speed="10.35" length="19.29" shape="175.78,-90.96 177.15,-90.79 181.96,-87.99 184.86,-83.24 185.85,-76.54"/>
    </edge>
    <edge id=":Node5_w0" function="walkingarea">
        <lane id=":Node5_w0_0" index="0" allow="pedestrian" speed="2.78" length="4.23" width="2.00" shape="170.61,-80.44 170.65,-78.44 172.65,-76.48 174.65,-76.49 174.54,-77.71 174.20,-78.71 173.63,-79.49 172.85,-80.03 171.84,-80.35"/>
    </edge>
    <edge id=":Node5_w1" function="walkingarea">
        <lane id=":Node5_w1_0" index="0" allow="pedestrian" speed="2.78" length="4.25" width="2.00" shape="193.85,-76.58 195.85,-76.58 197.84,-78.59 197.85,-80.59 196.63,-80.48 195.62,-80.15 194.84,-79.60 194.29,-78.81 193.96,-77.81"/>
    </edge>
    <edge id=":Node5_w2" function="walkingarea">
        <lane id=":Node5_w2_0" index="0" allow="pedestrian" speed="2.78" length="27.66" width="2.00" shape="197.95,-99.79 197.96,-101.79 170.28,-101.64 170.31,-99.64"/>
    </edge>
    <edge id=":Node6_0" function="internal">
        <lane id=":Node6_0_0" index="0" disallow="pedestrian" speed="11.71" length="31.97" shape="309.89,-97.62 318.57,-96.33 324.72,-92.57 328.32,-86.33 329.38,-77.61"/>
        <lane id=":Node6_0_1" index="1" disallow="pedestrian" speed="10.75" length="26.75" shape="309.87,-94.42 317.14,-93.34 322.28,-90.19 325.29,-84.97 326.18,-77.68"/>
        <lane id=":Node6_0_2" index="2" disallow="pedestrian" speed="9.68" length="21.53" shape="309.85,-91.22 315.70,-90.35 319.84,-87.82 322.27,-83.61 322.98,-77.74"/>
    </edge>
    <edge id=":Node6_3" function="internal">
        <lane id=":Node6_3_0" index="0" disallow="pedestrian" speed="5.36" length="5.87" shape="313.39,-77.94 313.19,-79.55 312.53,-80.69 311.40,-81.38 309.80,-81.62"/>
        <lane id=":Node6_3_1" index="1" disallow="pedestrian" speed="7.10" length="11.09" shape="316.58,-77.88 316.22,-80.90 314.97,-83.07 312.83,-84.37 309.82,-84.82"/>
        <lane id=":Node6_3_2" index="2" disallow="pedestrian" speed="8.49" length="16.31" shape="319.78,-77.81 319.24,-82.26 317.40,-85.44 314.27,-87.36 309.84,-88.02"/>
    </edge>
    <edge id=":Node6_w0" function="walkingarea">
        <lane id=":Node6_w0_0" index="0" allow="pedestrian" speed="2.78" length="31.64" width="2.00" shape="330.98,-77.58 332.98,-77.53 332.48,-84.74 330.64,-90.64 327.46,-95.24 322.94,-98.53 317.09,-100.53 309.90,-101.22 309.89,-99.22 316.46,-98.59 321.81,-96.77 325.93,-93.75 328.84,-89.55 330.52,-84.16"/>
    </edge>
    <edge id=":Node6_w1" function="walkingarea">
        <lane id=":Node6_w1_0" index="0" allow="pedestrian" speed="2.78" length="1.43" width="2.00" shape="309.80,-80.02 309.79,-78.02 311.79,-77.98 311.74,-78.60 311.58,-79.11 311.31,-79.50 310.92,-79.79 310.42,-79.96"/>
    </edge>
    <edge id=":Node7_w0" function="walkingarea">
        <lane id=":Node7_w0_0" index="0" allow="pedestrian" speed="2.78" length="21.20" width="2.00" shape="177.03,88.83 175.03,88.88 198.23,88.30 196.23,88.35"/>
    </edge>

    <edge id="-E5" from="Node6" to="Node3" priority="-1">
        <lane id="-E5_0" index="0" allow="pedestrian" speed="13.89" length="76.76" width="2.00" shape="331.98,-77.56 330.37,-0.82"/>
        <lane id="-E5_1" index="1" disallow="pedestrian" speed="13.89" length="76.76" shape="329.38,-77.61 327.78,-0.87"/>
        <lane id="-E5_2" index="2" disallow="pedestrian" speed="13.89" length="76.76" shape="326.18,-77.68 324.58,-0.94"/>
        <lane id="-E5_3" index="3" disallow="pedestrian" speed="13.89" length="76.76" shape="322.98,-77.74 321.38,-1.00"/>
    </edge>
    <edge id="-E6" from="Node5" to="Node6" priority="-1">
        <lane id="-E6_0" index="0" allow="pedestrian" speed="13.89" length="111.94" width="2.00" shape="197.96,-100.79 309.90,-100.22"/>
        <lane id="-E6_1" index="1" disallow="pedestrian" speed="13.89" length="111.94" shape="197.94,-98.19 309.89,-97.62"/>
        <lane id="-E6_2" index="2" disallow="pedestrian" speed="13.89" length="111.94" shape="197.93,-94.99 309.87,-94.42"/>
        <lane id="-E6_3" index="3" disallow="pedestrian" speed="13.89" length="111.94" shape="197.91,-91.79 309.85,-91.22"/>
    </edge>
    <edge id="-E7" from="Node4" to="Node5" priority="-1">
        <lane id="-E7_0" index="0" allow="pedestrian" speed="13.89" length="129.63" width="2.00" shape="40.68,-98.59 170.29,-100.64"/>
        <lane id="-E7_1" index="1" disallow="pedestrian" speed="13.89" length="129.63" shape="40.72,-95.99 170.34,-98.04"/>
        <lane id="-E7_2" index="2" disallow="pedestrian" speed="13.89" length="129.63" shape="40.77,-92.80 170.39,-94.84"/>
        <lane id="-E7_3" index="3" disallow="pedestrian" speed="13.89" length="129.63" shape="40.82,-89.60 170.44,-91.64"/>
    </edge>
    <edge id="-E8" from="Node1" to="Node4" priority="-1">
        <lane id="-E8_0" index="0" allow="pedestrian" speed="13.89" length="76.42" width="2.00" shape="16.97,-0.54 18.84,-76.94"/>
        <lane id="-E8_1" index="1" disallow="pedestrian" speed="13.89" length="76.42" shape="19.57,-0.48 21.44,-76.88"/>
        <lane id="-E8_2" index="2" disallow="pedestrian" speed="13.89" length="76.42" shape="22.77,-0.40 24.64,-76.80"/>
        <lane id="-E8_3" index="3" disallow="pedestrian" speed="13.89" length="76.42" shape="25.96,-0.32 27.84,-76.72"/>
    </edge>
    <edge id="E5" from="Node3" to="Node6" priority="-1">
        <lane id="E5_0" index="0" allow="pedestrian" speed="13.89" length="76.76" width="2.00" shape="309.18,-1.26 310.79,-78.00"/>
        <lane id="E5_1" index="1" disallow="pedestrian" speed="13.89" length="76.76" shape="311.78,-1.21 313.39,-77.94"/>
        <lane id="E5_2" index="2" disallow="pedestrian" speed="13.89" length="76.76" shape="314.98,-1.14 316.58,-77.88"/>
        <lane id="E5_3" index="3" disallow="pedestrian" speed="13.89" length="76.76" shape="318.18,-1.07 319.78,-77.81"/>
    </edge>
    <edge id="E6" from="Node6" to="Node5" priority="-1">
        <lane id="E6_0" index="0" allow="pedestrian" speed="13.89" length="111.94" width="2.00" shape="309.79,-79.02 197.85,-79.59"/>
        <lane id="E6_1" index="1" disallow="pedestrian" speed="13.89" length="111.94" shape="309.80,-81.62 197.86,-82.19"/>
        <lane id="E6_2" index="2" disallow="pedestrian" speed="13.89" length="111.94" shape="309.82,-84.82 197.88,-85.39"/>
        <lane id="E6_3" index="3" disallow="pedestrian" speed="13.89" length="111.94" shape="309.84,-88.02 197.90,-88.59"/>
    </edge>
    <edge id="E7" from="Node5" to="Node4" priority="-1">
        <lane id="E7_0" index="0" allow="pedestrian" speed="13.89" length="129.63" width="2.00" shape="170.63,-79.44 41.02,-77.40"/>
        <lane id="E7_1" index="1" disallow="pedestrian" speed="13.89" length="129.63" shape="170.59,-82.04 40.98,-80.00"/>
        <lane id="E7_2" index="2" disallow="pedestrian" speed="13.89" length="129.63" shape="170.54,-85.24 40.93,-83.20"/>
        <lane id="E7_3" index="3" disallow="pedestrian" speed="13.89" length="129.63" shape="170.49,-88.44 40.88,-86.40"/>
    </edge>
    <edge id="E8" from="Node4" to="Node1" priority="-1">
        <lane id="E8_0" index="0" allow="pedestrian" speed="13.89" length="76.42" width="2.00" shape="40.03,-76.42 38.16,-0.02"/>
        <lane id="E8_1" index="1" disallow="pedestrian" speed="13.89" length="76.42" shape="37.43,-76.49 35.56,-0.09"/>
        <lane id="E8_2" index="2" disallow="pedestrian" speed="13.89" length="76.42" shape="34.24,-76.56 32.36,-0.16"/>
        <lane id="E8_3" index="3" disallow="pedestrian" speed="13.89" length="76.42" shape="31.04,-76.64 29.16,-0.24"/>
    </edge>
    <edge id="Node1_2_EB" from="Node1" to="Node2" priority="-1">
        <lane id="Node1_2_EB_0" index="0" allow="pedestrian" speed="13.89" length="131.85" width="2.00" shape="39.17,1.00 171.01,0.03"/>
        <lane id="Node1_2_EB_1" index="1" disallow="pedestrian" speed="13.89" length="131.85" shape="39.19,3.60 171.03,2.63"/>
        <lane id="Node1_2_EB_2" index="2" disallow="pedestrian" speed="13.89" length="131.85" shape="39.21,6.80 171.06,5.83"/>
        <lane id="Node1_2_EB_3" index="3" disallow="pedestrian" speed="13.89" length="131.85" shape="39.23,10.00 171.08,9.03"/>
    </edge>
    <edge id="Node1_2_WB" from="Node2" to="Node1" priority="-1">
        <lane id="Node1_2_WB_0" index="0" allow="pedestrian" speed="13.89" length="131.85" width="2.00" shape="171.17,21.23 39.32,22.20"/>
        <lane id="Node1_2_WB_1" index="1" disallow="pedestrian" speed="13.89" length="131.85" shape="171.15,18.63 39.30,19.60"/>
        <lane id="Node1_2_WB_2" index="2" disallow="pedestrian" speed="13.89" length="131.85" shape="171.13,15.43 39.28,16.40"/>
        <lane id="Node1_2_WB_3" index="3" disallow="pedestrian" speed="13.89" length="131.85" shape="171.10,12.23 39.26,13.20"/>
    </edge>
    <edge id="Node2_3_EB" from="Node2" to="Node3" priority="-1">
        <lane id="Node2_3_EB_0" index="0" allow="pedestrian" speed="13.89" length="109.66" width="2.00" shape="198.52,-0.09 308.18,-0.28"/>
        <lane id="Node2_3_EB_1" index="1" disallow="pedestrian" speed="13.89" length="109.66" shape="198.52,2.51 308.19,2.32"/>
        <lane id="Node2_3_EB_2" index="2" disallow="pedestrian" speed="13.89" length="109.66" shape="198.53,5.71 308.19,5.52"/>
        <lane id="Node2_3_EB_3" index="3" disallow="pedestrian" speed="13.89" length="109.66" shape="198.53,8.91 308.20,8.72"/>
    </edge>
    <edge id="Node2_3_WB" from="Node3" to="Node2" priority="-1">
        <lane id="Node2_3_WB_0" index="0" allow="pedestrian" speed="13.89" length="109.66" width="2.00" shape="308.22,20.92 198.55,21.11"/>
        <lane id="Node2_3_WB_1" index="1" disallow="pedestrian" speed="13.89" length="109.66" shape="308.21,18.32 198.55,18.51"/>
        <lane id="Node2_3_WB_2" index="2" disallow="pedestrian" speed="13.89" length="109.66" shape="308.21,15.12 198.54,15.31"/>
        <lane id="Node2_3_WB_3" index="3" disallow="pedestrian" speed="13.89" length="109.66" shape="308.20,11.92 198.54,12.11"/>
    </edge>
    <edge id="Node2_5_NB" from="Node5" to="Node2" priority="-1">
        <lane id="Node2_5_NB_0" index="0" allow="pedestrian" speed="13.89" length="73.49" width="2.00" shape="194.85,-76.58 195.20,-3.09"/>
        <lane id="Node2_5_NB_1" index="1" disallow="pedestrian" speed="13.89" length="73.49" shape="192.25,-76.57 192.60,-3.08"/>
        <lane id="Node2_5_NB_2" index="2" disallow="pedestrian" speed="13.89" length="73.49" shape="189.05,-76.55 189.40,-3.06"/>