<?xml version="1.0" encoding="UTF-8"?>

<!-- generated on 2025-12-31T23:32:06.647423+00:00 by Eclipse SUMO netedit 1.25.0
-->

<routes xmlns:xsi="http://www.w3.org/2001/XMLSchema-instance" xsi:noNamespaceSchemaLocation="http://sumo.dlr.de/xsd/routes_file.xsd">
    <!-- Vehicles, persons and containers (sorted by depart) -->
    <flow id="f_0" begin="0.00" end="3600.00" perHour="1800.00" from="Node1_2_WB" to="Node7_7_NB" via="Node2_3_WB"/>
    <flow id="f_1" begin="0.00" end="3600.00" number="1800" from="Node2_7_SB" to="Node7_7_NB" via="E8 Node1_2_EB Node2_3_EB E5 E6 Node2_5_NB"/>
    <flow id="f_2" begin="0.00" end="3600.00" perHour="1800.00" from="Node2_5_NB" to="Node7_7_NB" via="Node2_3_EB E5 E6 E8 Node1_2_EB"/>
    <personFlow id="pf_0" begin="0.00" end="3600.00" perHour="1800.00">
        <walk edges="Node1_2_WB Node2_3_WB Node2_7_SB Node2_5_SB Node2_5_NB"/>
    </personFlow>
    <personFlow id="pf_1" begin="0.00" end="3600.00" perHour="1800.00">
        <ride from="Node1_2_WB" to="Node1_2_WB"/>
    </personFlow>
    <personFlow id="pf_2" begin="0.00" end="3600.00" perHour="1800.00">
        <personTrip from="Node2_3_WB" to="Node1_2_WB"/>
    </personFlow>
    <personFlow id="pf_3" begin="0.00" end="3600.00" perHour="1800.00">
        <personTrip from="Node2_7_SB" to="Node2_3_EB"/>
    </personFlow>
</routes>
