<?xml version="1.0" encoding="UTF-8"?>

<!-- generated on 2026-01-01T22:45:32.749922+00:00 by Eclipse SUMO netedit 1.25.0
-->

<additional xmlns:xsi="http://www.w3.org/2001/XMLSchema-instance" xsi:noNamespaceSchemaLocation="http://sumo.dlr.de/xsd/additional_file.xsd">
    <!-- Detectors -->
    <laneAreaDetector id="Node1_2_EB_0" lane="Node1_2_EB_1" pos="95.00" length="20.00" period="300.00" file="e2_0.xml"/>
    <laneAreaDetector id="Node1_2_EB_1" lane="Node1_2_EB_2" pos="95.00" length="20.00" period="300.00" file="e2_1.xml"/>
    <laneAreaDetector id="Node1_2_EB_2" lane="Node1_2_EB_3" pos="95.00" length="20.00" period="300.00" file="e2_2.xml"/>
    <laneAreaDetector id="Node2_1_EB_0" lane="Node1_2_WB_1" pos="92.00" length="22.00" period="18.00" file="e2_11.xml"/>
    <laneAreaDetector id="Node2_1_EB_1" lane="Node1_2_WB_2" pos="92.00" length="22.00" friendlyPos="1" period="18.00" file="e2_8.xml"/>
    <laneAreaDetector id="Node2_1_EB_2" lane="Node1_2_WB_3" pos="92.00" length="22.00" friendlyPos="1" period="18.00" file="e2_10.xml"/>
    <laneAreaDetector id="Node2_3_EB_0" lane="Node2_3_EB_1" pos="85.00" length="22.00" friendlyPos="1" period="18.00" file="e2_27.xml"/>
    <laneAreaDetector id="Node2_3_EB_1" lane="Node2_3_EB_2" pos="85.00" length="22.00" friendlyPos="1" period="18.00" file="e2_28.xml"/>
    <laneAreaDetector id="Node2_3_EB_2" lane="Node2_3_EB_3" pos="85.00" length="22.00" friendlyPos="1" period="18.00" file="e2_30.xml"/>
    <laneAreaDetector id="Node2_5_SB_0" lane="Node2_5_NB_1" pos="52.25" length="18.00" period="300.00" file="e2_4.xml"/>
    <laneAreaDetector id="Node2_5_SB_1" lane="Node2_5_NB_2" pos="52.69" length="18.00" period="300.00" file="e2_5.xml"/>
    <laneAreaDetector id="Node2_5_SB_2" lane="Node2_5_NB_3" pos="52.82" length="18.00" period="300.00" file="e2_6.xml"/>
    <laneAreaDetector id="Node2_7_SB_0" lane="Node2_7_SB_1" pos="43.00" length="20.00" period="300.00" file="e2_3.xml"/>
    <laneAreaDetector id="Node2_7_SB_1" lane="Node2_7_SB_2" pos="42.98" length="20.00" period="300.00" file="e2_4.xml"/>
    <laneAreaDetector id="Node2_7_SB_2" lane="Node2_7_SB_3" pos="43.00" length="20.00" period="300.00" file="e2_5.xml"/>
    <laneAreaDetector id="Node3_2_EB_0" lane="Node2_3_WB_1" pos="85.00" length="23.00" period="300.00" file="e2_1.xml"/>
    <laneAreaDetector id="Node3_2_EB_1" lane="Node2_3_WB_2" pos="85.00" length="23.00" period="300.00" file="e2_0.xml"/>
    <laneAreaDetector id="Node3_2_EB_2" lane="Node2_3_WB_3" pos="85.00" length="23.00" period="300.00" file="e2_3.xml"/>
    <laneAreaDetector id="Node4_1_SB_0" lane="E8_1" pos="52.00" length="19.00" friendlyPos="1" period="18.00" file="e2_18.xml"/>
    <laneAreaDetector id="Node4_1_SB_1" lane="E8_2" pos="52.00" length="19.00" friendlyPos="1" period="18.00" file="e2_15.xml"/>
    <laneAreaDetector id="Node4_1_SB_2" lane="E8_3" pos="52.00" length="19.00" friendlyPos="1" period="18.00" file="e2_16.xml"/>
    <laneAreaDetector id="Node4_5_EB_0" lane="-E7_1" pos="95.00" length="22.00" friendlyPos="1" period="18.00" file="e2_26.xml"/>
    <laneAreaDetector id="Node4_5_EB_1" lane="-E7_2" pos="95.00" length="22.00" friendlyPos="1" period="18.00" file="e2_25.xml"/>
    <laneAreaDetector id="Node4_5_EB_2" lane="-E7_3" pos="95.00" length="22.00" friendlyPos="1" period="18.00" file="e2_24.xml"/>
    <laneAreaDetector id="Node5_2_SB_0" lane="Node2_5_SB_1" pos="52.00" length="18.00" friendlyPos="1" period="18.00" file="e2_17.xml"/>
    <laneAreaDetector id="Node5_2_SB_1" lane="Node2_5_SB_2" pos="52.00" length="18.00" friendlyPos="1" period="18.00" file="e2_19.xml"/>
    <laneAreaDetector id="Node5_2_SB_2" lane="Node2_5_SB_3" pos="52.00" length="18.00" friendlyPos="1" period="18.00" file="e2_20.xml"/>
    <laneAreaDetector id="Node6_3_SB_0" lane="-E5_1" pos="55.00" length="18.00" friendlyPos="1" period="18.00" file="e2_32.xml"/>
    <laneAreaDetector id="Node6_3_SB_1" lane="-E5_2" pos="55.00" length="18.00" friendlyPos="1" period="18.00" file="e2_31.xml"/>
    <laneAreaDetector id="Node6_3_SB_2" lane="-E5_3" pos="55.00" length="18.00" friendlyPos="1" period="18.00" file="e2_29.xml"/>
    <laneAreaDetector id="Node6_5_EB_0" lane="E6_1" pos="90.00" length="19.00" friendlyPos="1" period="18.00" file="e2_21.xml"/>
    <laneAreaDetector id="Node6_5_EB_1" lane="E6_2" pos="90.00" length="19.00" friendlyPos="1" period="18.00" file="e2_22.xml"/>
    <laneAreaDetector id="Node6_5_EB_2" lane="E6_3" pos="90.00" length="19.00" friendlyPos="1" period="18.00" file="e2_23.xml"/>
    <laneAreaDetector id="Node7_2_SB_0" lane="Node7_7_NB_1" pos="45.00" length="18.00" friendlyPos="1" period="18.00" file="e2_9.xml"/>
    <laneAreaDetector id="Node7_2_SB_1" lane="Node7_7_NB_2" pos="45.00" length="18.00" friendlyPos="1" period="18.00" file="e2_0.xml"/>
    <laneAreaDetector id="Node7_2_SB_2" lane="Node7_7_NB_3" pos="45.00" length="18.00" friendlyPos="1" period="18.00" file="e2_1.xml"/>
    <laneAreaDetector id="Node8_1_SB_0" lane="-E13_1" pos="46.00" length="18.00" friendlyPos="1" period="18.00" file="e2_12.xml"/>
    <laneAreaDetector id="Node8_1_SB_1" lane="-E13_2" pos="46.00" length="18.00" friendlyPos="1" period="18.00" file="e2_13.xml"/>
    <laneAreaDetector id="Node8_1_SB_2" lane="-E13_3" pos="46.00" length="18.00" friendlyPos="1" period="18.00" file="e2_14.xml"/>
    <laneAreaDetector id="Node8_7_EB_0" lane="E10_1" pos="98.00" length="19.33" friendlyPos="1" period="18.00" file="e2_2.xml"/>
    <laneAreaDetector id="Node8_7_EB_1" lane="E10_2" pos="98.00" length="19.33" friendlyPos="1" period="18.00" file="e2_3.xml"/>
    <laneAreaDetector id="Node8_7_EB_2" lane="E10_3" pos="98.00" length="19.33" friendlyPos="1" period="18.00" file="e2_4.xml"/>
    <laneAreaDetector id="Node9_3_SB_0" lane="-E11_1" pos="45.00" length="20.00" friendlyPos="1" period="18.00" file="e2_33.xml"/>
    <laneAreaDetector id="Node9_3_SB_1" lane="-E11_2" pos="45.00" length="20.00" friendlyPos="1" period="18.00" file="e2_34.xml"/>
    <laneAreaDetector id="Node9_3_SB_2" lane="-E11_3" pos="45.00" length="20.00" friendlyPos="1" period="18.00" file="e2_35.xml"/>
    <laneAreaDetector id="Node9_7_EB_0" lane="-E12_1" pos="88.00" length="21.00" friendlyPos="1" period="18.00" file="e2_7.xml"/>
    <laneAreaDetector id="Node9_7_EB_1" lane="-E12_2" pos="88.00" length="21.00" friendlyPos="1" period="18.00" file="e2_6.xml"/>
    <laneAreaDetector id="Node9_7_EB_2" lane="-E12_3" pos="88.00" length="21.00" friendlyPos="1" period="18.00" file="e2_5.xml"/>
</additional>
