<additional xmlns:xsi="http://www.w3.org/2001/XMLSchema-instance" xsi:noNamespaceSchemaLocation="http://sumo.dlr.de/xsd/additional_file.xsd">
    
    <laneAreaDetector id="Node1_2_EB_0" lane="Node1_2_EB_1" pos="95.00" length="20.00" period="300.00" file="det_outputs\e2_0.xml" />
    <laneAreaDetector id="Node1_2_EB_1" lane="Node1_2_EB_2" pos="95.00" length="20.00" period="300.00" file="det_outputs\e2_1.xml" />
    <laneAreaDetector id="Node1_2_EB_2" lane="Node1_2_EB_3" pos="95.00" length="20.00" period="300.00" file="det_outputs\e2_2.xml" />
    <laneAreaDetector id="Node2_1_EB_0" lane="Node1_2_WB_1" pos="92.00" length="22.00" period="18.00" file="det_outputs\e2_11.xml" />
    <laneAreaDetector id="Node2_1_EB_1" lane="Node1_2_WB_2" pos="92.00" length="22.00" friendlyPos="1" period="18.00" file="det_outputs\e2_8.xml" />
    <laneAreaDetector id="Node2_1_EB_2" lane="Node1_2_WB_3" pos="92.00" length="22.00" friendlyPos="1" period="18.00" file="det_outputs\e2_10.xml" />
    <laneAreaDetector id="Node2_3_EB_0" lane="Node2_3_EB_1" pos="85.00" length="22.00" friendlyPos="1" period="18.00" file="det_outputs\e2_27.xml" />
    <laneAreaDetector id="Node2_3_EB_1" lane="Node2_3_EB_2" pos="85.00" length="22.00" friendlyPos="1" period="18.00" file="det_outputs\e2_28.xml" />
    <laneAreaDetector id="Node2_3_EB_2" lane="Node2_3_EB_3" pos="85.00" length="22.00" friendlyPos="1" period="18.00" file="det_outputs\e2_30.xml" />
    <laneAreaDetector id="Node2_5_SB_0" lane="Node2_5_NB_1" pos="52.25" length="18.00" period="300.00" file="det_outputs\e2_4.xml" />
    <laneAreaDetector id="Node2_5_SB_1" lane="Node2_5_NB_2" pos="52.69" length="18.00" period="300.00" file="det_outputs\e2_5.xml" />
    <laneAreaDetector id="Node2_5_SB_2" lane="Node2_5_NB_3" pos="52.82" length="18.00" period="300.00" file="det_outputs\e2_6.xml" />
    <laneAreaDetector id="Node2_7_SB_0" lane="Node2_7_SB_1" pos="43.00" length="20.00" period="300.00" file="det_outputs\e2_3.xml" />
    <laneAreaDetector id="Node2_7_SB_1" lane="Node2_7_SB_2" pos="42.98" length="20.00" period="300.00" file="det_outputs\e2_4.xml" />
    <laneAreaDetector id="Node2_7_SB_2" lane="Node2_7_SB_3" pos="43.00" length="20.00" period="300.00" file="det_outputs\e2_5.xml" />
    <laneAreaDetector id="Node3_2_EB_0" lane="Node2_3_WB_1" pos="85.00" length="23.00" period="300.00" file="det_outputs\e2_1.xml" />
    <laneAreaDetector id="Node3_2_EB_1" lane="Node2_3_WB_2" pos="85.00" length="23.00" period="300.00" file="det_outputs\e2_0.xml" />
    <laneAreaDetector id="Node3_2_EB_2" lane="Node2_3_WB_3" pos="85.00" length="23.00" period="300.00" file="det_outputs\e2_3.xml" />
    <laneAreaDetector id="Node4_1_SB_0" lane="Node4_1_1" pos="52.00" length="19.00" friendlyPos="1" period="18.00" file="det_outputs\e2_18.xml" />
    <laneAreaDetector id="Node4_1_SB_1" lane="Node4_1_2" pos="52.00" length="19.00" friendlyPos="1" period="18.00" file="det_outputs\e2_15.xml" />
    <laneAreaDetector id="Node4_1_SB_2" lane="Node4_1_3" pos="52.00" length="19.00" friendlyPos="1" period="18.00" file="det_outputs\e2_16.xml" />
    <laneAreaDetector id="Node4_5_EB_0" lane="Node4_5_1" pos="95.00" length="22.00" friendlyPos="1" period="18.00" file="det_outputs\e2_26.xml" />
    <laneAreaDetector id="Node4_5_EB_1" lane="Node4_5_2" pos="95.00" length="22.00" friendlyPos="1" period="18.00" file="det_outputs\e2_25.xml" />
    <laneAreaDetector id="Node4_5_EB_2" lane="Node4_5_3" pos="95.00" length="22.00" friendlyPos="1" period="18.00" file="det_outputs\e2_24.xml" />
    <laneAreaDetector id="Node5_2_SB_0" lane="Node2_5_SB_1" pos="52.00" length="18.00" friendlyPos="1" period="18.00" file="det_outputs\e2_17.xml" />
    <laneAreaDetector id="Node5_2_SB_1" lane="Node2_5_SB_2" pos="52.00" length="18.00" friendlyPos="1" period="18.00" file="det_outputs\e2_19.xml" />
    <laneAreaDetector id="Node5_2_SB_2" lane="Node2_5_SB_3" pos="52.00" length="18.00" friendlyPos="1" period="18.00" file="det_outputs\e2_20.xml" />
    <laneAreaDetector id="Node6_3_SB_0" lane="Node6_3_1" pos="55.00" length="18.00" friendlyPos="1" period="18.00" file="det_outputs\e2_32.xml" />
    <laneAreaDetector id="Node6_3_SB_1" lane="Node6_3_2" pos="55.00" length="18.00" friendlyPos="1" period="18.00" file="det_outputs\e2_31.xml" />
    <laneAreaDetector id="Node6_3_SB_2" lane="Node6_3_3" pos="55.00" length="18.00" friendlyPos="1" period="18.00" file="det_outputs\e2_29.xml" />
    <laneAreaDetector id="Node6_5_EB_0" lane="Node6_5_1" pos="90.00" length="19.00" friendlyPos="1" period="18.00" file="det_outputs\e2_21.xml" />
    <laneAreaDetector id="Node6_5_EB_1" lane="Node6_5_2" pos="90.00" length="19.00" friendlyPos="1" period="18.00" file="det_outputs\e2_22.xml" />
    <laneAreaDetector id="Node6_5_EB_2" lane="Node6_5_3" pos="90.00" length="19.00" friendlyPos="1" period="18.00" file="det_outputs\e2_23.xml" />
    <laneAreaDetector id="Node7_2_SB_0" lane="Node7_7_NB_1" pos="45.00" length="18.00" friendlyPos="1" period="18.00" file="det_outputs\e2_9.xml" />
    <laneAreaDetector id="Node7_2_SB_1" lane="Node7_7_NB_2" pos="45.00" length="18.00" friendlyPos="1" period="18.00" file="det_outputs\e2_0.xml" />
    <laneAreaDetector id="Node7_2_SB_2" lane="Node7_7_NB_3" pos="45.00" length="18.00" friendlyPos="1" period="18.00" file="det_outputs\e2_1.xml" />
    <laneAreaDetector id="Node8_1_SB_0" lane="Node8_1_1" pos="46.00" length="18.00" friendlyPos="1" period="18.00" file="det_outputs\e2_12.xml" />
    <laneAreaDetector id="Node8_1_SB_1" lane="Node8_1_2" pos="46.00" length="18.00" friendlyPos="1" period="18.00" file="det_outputs\e2_13.xml" />
    <laneAreaDetector id="Node8_1_SB_2" lane="Node8_1_3" pos="46.00" length="18.00" friendlyPos="1" period="18.00" file="det_outputs\e2_14.xml" />
    <laneAreaDetector id="Node8_7_EB_0" lane="Node8_7_1" pos="98.00" length="19.33" friendlyPos="1" period="18.00" file="det_outputs\e2_2.xml" />
    <laneAreaDetector id="Node8_7_EB_1" lane="Node8_7_2" pos="98.00" length="19.33" friendlyPos="1" period="18.00" file="det_outputs\e2_3.xml" />
    <laneAreaDetector id="Node8_7_EB_2" lane="Node8_7_3" pos="98.00" length="19.33" friendlyPos="1" period="18.00" file="det_outputs\e2_4.xml" />
    <laneAreaDetector id="Node9_3_SB_0" lane="Node9_3_1" pos="45.00" length="20.00" friendlyPos="1" period="18.00" file="det_outputs\e2_33.xml" />
    <laneAreaDetector id="Node9_3_SB_1" lane="Node9_3_2" pos="45.00" length="20.00" friendlyPos="1" period="18.00" file="det_outputs\e2_34.xml" />
    <laneAreaDetector id="Node9_3_SB_2" lane="Node9_3_3" pos="45.00" length="20.00" friendlyPos="1" period="18.00" file="det_outputs\e2_35.xml" />
    <laneAreaDetector id="Node9_7_EB_0" lane="Node9_7_1" pos="88.00" length="21.00" friendlyPos="1" period="18.00" file="det_outputs\e2_7.xml" />
    <laneAreaDetector id="Node9_7_EB_1" lane="Node9_7_2" pos="88.00" length="21.00" friendlyPos="1" period="18.00" file="det_outputs\e2_6.xml" />
    <laneAreaDetector id="Node9_7_EB_2" lane="Node9_7_3" pos="88.00" length="21.00" friendlyPos="1" period="18.00" file="det_outputs\e2_5.xml" />
    
    <poly id="po_0" color="0,150,164" fill="1" layer="0.00" shape="116.141255,118.386244 46.829156,117.501409 37.095968,114.257012 28.542560,104.818769 28.247615,96.855252 27.657725,83.582722 28.247615,52.613486 -0.951950,53.203377 -0.951950,126.349762 -0.657005,149.650425 114.371584,149.060534 116.436200,117.796354" />
    <poly id="po_1" color="191,193,193" fill="1" layer="0.00" shape="250.133446,119.442952 313.412577,118.638556 322.797194,114.884709 331.645547,108.181412 334.594998,100.137454 337.544449,80.027561 337.008185,54.823162 364.893904,54.823162 360.871925,155.372628 249.597183,153.763836 250.937842,119.442952" />
    <poly id="po_3" color="red" fill="1" layer="0.00" shape="59.432670,-35.372123 59.789553,-70.703596 141.872775,-71.417363 140.802124,-34.301472 58.718903,-34.658356 59.789553,-38.584075" />
    <poly id="po_4" color="green" fill="1" layer="0.00" shape="259.644353,-107.105721 320.314561,-107.462604 330.307301,-99.968049 333.162369,-96.756097 333.162369,-91.759727 333.876136,-79.625686 334.233020,-75.699966 334.589903,-61.424623 388.122439,-61.781507 389.906857,-125.663666 390.620624,-141.009660 245.012127,-141.723427 242.870826,-106.748837 263.926956,-107.105721" />
</additional>