<?xml version="1.0" encoding="UTF-8"?>

<!-- generated on 2026-01-01T22:28:13.748632+00:00 by Eclipse SUMO netedit 1.25.0
<neteditConfiguration xmlns:xsi="http://www.w3.org/2001/XMLSchema-instance" xsi:noNamespaceSchemaLocation="http://sumo.dlr.de/xsd/neteditConfiguration.xsd">

    <input>
        <sumocfg-file value="C:\Users\DELL\Desktop\Projects\Projet IA &amp; Traitement d&apos;image\IA\v3\RL.sumocfg"/>
        <additional-files value="C:\Users\DELL\Desktop\Projects\Projet IA &amp; Traitement d&apos;image\IA\v3\RL.add.xml"/>
        <route-files value="C:\Users\DELL\Desktop\Projects\Projet IA &amp; Traitement d&apos;image\IA\v3\RL.rou.xml"/>
        <sumo-net-file value="C:\Users\DELL\Desktop\Projects\Projet IA &amp; Traitement d&apos;image\IA\v3\RL.net.xml"/>
    </input>

    <output>
        <tls-file value="C:\Users\DELL\Desktop\Projects\Projet IA &amp; Traitement d&apos;image\IA\v3\RL.tll.xml"/>
        <output-file value="C:\Users\DELL\Desktop\Projects\Projet IA &amp; Traitement d&apos;image\IA\v3\RL.net.xml"/>
    </output>

    <processing>
        <geometry.min-radius.fix.railways value="false"/>
        <geometry.avoid-overlap value="false"/>
        <geometry.max-grade.fix value="false"/>
        <offset.disable-normalization value="true"/>
        <lefthand value="0"/>
    </processing>

    <junctions>
        <no-internal-links value="false"/>
        <no-turnarounds value="true"/>
        <junctions.corner-detail value="5"/>
        <junctions.limit-turn-speed value="5.50"/>
        <rectangular-lane-cut value="0"/>
    </junctions>

    <pedestrian>
        <walkingareas value="1"/>
    </pedestrian>

    <netedit>
        <ignore.routeelements value="false"/>
    </netedit>

</neteditConfiguration>
-->

<net version="1.20" junctionCornerDetail="5" walkingareas="true" limitTurnSpeed="5.50" avoidOverlap="0" xmlns:xsi="http://www.w3.org/2001/XMLSchema-instance" xsi:noNamespaceSchemaLocation="http://sumo.dlr.de/xsd/net_file.xsd">

    <location netOffset="0.00,0.00" convBoundary="40.66,-89.56,321.87,103.45" origBoundary="-10000000000.00,-10000000000.00,10000000000.00,10000000000.00" projParameter="!"/>

    <edge id=":Node1_0" function="internal">
        <lane id=":Node1_0_0" index="0" disallow="pedestrian" speed="6.56" length="4.82" shape="55.35,19.28 52.85,19.63 51.05,20.67 50.94,20.85"/>
    </edge>
    <edge id=":Node1_1" function="internal">
        <lane id=":Node1_1_0" index="0" disallow="pedestrian" speed="11.36" length="25.66" shape="55.35,16.08 47.29,14.93 41.54,11.49 38.08,5.73 37.50,1.67"/>
        <lane id=":Node1_1_1" index="1" disallow="pedestrian" speed="10.36" length="20.49" shape="55.35,12.88 48.69,11.93 43.93,9.08 41.08,4.33 40.70,1.68"/>
    </edge>
    <edge id=":Node1_12" function="internal">
        <lane id=":Node1_12_0" index="0" disallow="pedestrian" speed="6.56" length="4.30" shape="50.94,20.85 49.96,22.41 49.57,24.84"/>
    </edge>
    <edge id=":Node1_13" function="internal">
        <lane id=":Node1_13_0" index="0" disallow="pedestrian" speed="11.36" length="4.04" shape="37.50,1.67 36.93,-2.33"/>
        <lane id=":Node1_13_1" index="0" disallow="pedestrian" speed="10.36" length="4.04" shape="40.70,1.68 40.13,-2.32"/>
    </edge>
    <edge id=":Node1_3" function="internal">
        <lane id=":Node1_3_0" index="0" disallow="pedestrian" speed="6.51" length="4.75" shape="49.73,-2.32 50.08,0.13 51.13,1.88 51.33,2.00"/>
    </edge>
    <edge id=":Node1_4" function="internal">
        <lane id=":Node1_4_0" index="0" disallow="pedestrian" speed="13.89" length="27.12" shape="49.73,-2.32 49.57,24.84"/>
        <lane id=":Node1_4_1" index="1" disallow="pedestrian" speed="13.89" length="27.12" shape="46.53,-2.32 46.37,24.80"/>
        <lane id=":Node1_4_2" index="2" disallow="pedestrian" speed="13.89" length="27.12" shape="43.33,-2.32 43.17,24.76"/>
    </edge>
    <edge id=":Node1_14" function="internal">
        <lane id=":Node1_14_0" index="0" disallow="pedestrian" speed="6.51" length="4.28" shape="51.33,2.00 52.88,2.93 55.34,3.28"/>
    </edge>
    <edge id=":Node1_7" function="internal">
        <lane id=":Node1_7_0" index="0" disallow="pedestrian" speed="13.89" length="27.01" shape="33.57,24.65 33.73,-2.33"/>
        <lane id=":Node1_7_1" index="1" disallow="pedestrian" speed="13.89" length="27.01" shape="36.77,24.69 36.93,-2.33"/>
        <lane id=":Node1_7_2" index="2" disallow="pedestrian" speed="13.89" length="27.01" shape="39.97,24.72 40.13,-2.32"/>
    </edge>
    <edge id=":Node1_10" function="internal">
        <lane id=":Node1_10_0" index="0" disallow="pedestrian" speed="10.92" length="5.73" shape="39.97,24.72 40.71,19.05"/>
        <lane id=":Node1_10_1" index="1" disallow="pedestrian" speed="10.40" length="4.79" shape="39.97,24.72 40.71,20.00"/>
    </edge>
    <edge id=":Node1_15" function="internal">
        <lane id=":Node1_15_0" index="0" disallow="pedestrian" speed="10.92" length="21.33" shape="40.71,19.05 41.01,16.75 43.92,11.05 48.70,7.62 55.34,6.48"/>
        <lane id=":Node1_15_1" index="0" disallow="pedestrian" speed="10.40" length="19.67" shape="40.71,20.00 41.00,18.15 43.90,13.45 48.68,10.62 55.34,9.68"/>
    </edge>
    <edge id=":Node1_c0" function="crossing" crossingEdges="Node1_2_EB Node1_2_WB">
        <lane id=":Node1_c0_0" index="0" allow="pedestrian" speed="2.78" length="19.20" width="4.00" shape="53.33,1.68 53.35,20.88" outlineShape="55.33,1.68 55.35,20.88 55.35,20.98 55.35,20.88 54.09,20.99 53.05,21.32 52.24,21.87 51.66,22.65 51.55,22.95 51.35,20.88 51.33,1.68 51.67,-0.43 51.78,-0.10 52.33,0.68 53.11,1.23 54.11,1.57"/>
    </edge>
    <edge id=":Node1_c1" function="crossing" crossingEdges="-E8 E8">
        <lane id=":Node1_c1_0" index="0" allow="pedestrian" speed="2.78" length="19.20" width="4.00" shape="32.13,-0.33 51.33,-0.32" outlineShape="32.13,-2.33 51.33,-2.32 51.43,-2.32 51.44,-1.10 51.78,-0.10 52.33,0.68 53.11,1.23 53.44,1.34 51.33,1.68 32.13,1.67 32.13,-2.33 30.13,-2.33 30.11,1.67"/>
    </edge>
    <edge id=":Node1_c2" function="crossing" crossingEdges="E13 -E13">
        <lane id=":Node1_c2_0" index="0" allow="pedestrian" speed="2.78" length="19.20" width="4.00" shape="51.20,22.85 32.00,22.63" outlineShape="51.17,24.85 31.97,24.63 31.87,24.63 31.97,24.63 32.02,20.63 55.08,20.90 54.09,20.99 53.05,21.32 52.24,21.87 51.66,22.65 51.30,23.64"/>
    </edge>
    <edge id=":Node1_w0" function="walkingarea">
        <lane id=":Node1_w0_0" index="0" allow="pedestrian" speed="2.78" length="3.37" width="4.00" shape="51.17,24.85 53.17,24.88 55.36,22.88 55.35,20.88 54.09,20.99 53.05,21.32 52.24,21.87 51.66,22.65 51.30,23.64"/>
    </edge>
    <edge id=":Node1_w1" function="walkingarea">
        <lane id=":Node1_w1_0" index="0" allow="pedestrian" speed="2.78" length="3.30" width="4.00" shape="55.33,1.68 55.33,-0.32 53.33,-2.32 51.33,-2.32 51.44,-1.10 51.78,-0.10 52.33,0.68 53.11,1.23 54.11,1.57"/>
    </edge>
    <edge id=":Node1_w2" function="walkingarea">
        <lane id=":Node1_w2_0" index="0" allow="pedestrian" speed="2.78" length="17.39" width="4.00" shape="32.13,1.67 32.13,-2.33 30.13,-2.33 29.97,24.61 31.97,24.63 32.02,20.63"/>
    </edge>
    <edge id=":Node2_0" function="internal">
        <lane id=":Node2_0_0" index="0" disallow="pedestrian" speed="6.51" length="4.74" shape="176.71,24.74 176.35,22.30 175.30,20.55 175.10,20.43"/>
    </edge>
    <edge id=":Node2_1" function="internal">
        <lane id=":Node2_1_0" index="0" disallow="pedestrian" speed="13.89" length="27.39" shape="176.71,24.74 176.76,-2.68"/>
        <lane id=":Node2_1_1" index="1" disallow="pedestrian" speed="13.89" length="27.39" shape="179.91,24.73 179.96,-2.65"/>
        <lane id=":Node2_1_2" index="2" disallow="pedestrian" speed="13.89" length="27.39" shape="183.11,24.72 183.16,-2.63"/>
    </edge>
    <edge id=":Node2_4" function="internal">
        <lane id=":Node2_4_0" index="0" disallow="pedestrian" speed="10.13" length="3.00" shape="183.11,24.72 183.85,21.81"/>
    </edge>
    <edge id=":Node2_26" function="internal">
        <lane id=":Node2_26_0" index="0" disallow="pedestrian" speed="6.51" length="4.28" shape="175.10,20.43 173.55,19.50 171.10,19.15"/>
    </edge>
    <edge id=":Node2_27" function="internal">
        <lane id=":Node2_27_0" index="0" disallow="pedestrian" speed="10.13" length="20.34" shape="183.85,21.81 184.48,19.30 188.05,14.40 192.98,10.85 198.41,9.46"/>
    </edge>
    <edge id=":Node2_5" function="internal">
        <lane id=":Node2_5_0" index="0" disallow="pedestrian" speed="6.56" length="4.87" shape="198.47,19.06 195.94,19.42 194.14,20.48 194.02,20.68"/>
    </edge>
    <edge id=":Node2_6" function="internal">
        <lane id=":Node2_6_0" index="0" disallow="pedestrian" speed="13.89" length="27.35" shape="198.47,19.06 171.10,19.15"/>
        <lane id=":Node2_6_1" index="1" disallow="pedestrian" speed="13.89" length="27.35" shape="198.45,15.86 171.10,15.95"/>
        <lane id=":Node2_6_2" index="2" disallow="pedestrian" speed="13.89" length="27.35" shape="198.43,12.66 171.09,12.75"/>
    </edge>
    <edge id=":Node2_9" function="internal">
        <lane id=":Node2_9_0" index="0" disallow="pedestrian" speed="10.35" length="5.09" shape="198.43,12.66 193.38,11.96"/>
    </edge>
    <edge id=":Node2_28" function="internal">
        <lane id=":Node2_28_0" index="0" disallow="pedestrian" speed="6.56" length="4.30" shape="194.02,20.68 193.06,22.23 192.71,24.68"/>
    </edge>
    <edge id=":Node2_29" function="internal">
        <lane id=":Node2_29_0" index="0" disallow="pedestrian" speed="10.35" length="19.62" shape="193.38,11.96 191.71,11.74 186.92,8.88 184.07,4.09 183.16,-2.63"/>
    </edge>
    <edge id=":Node2_10" function="internal">
        <lane id=":Node2_10_0" index="0" disallow="pedestrian" speed="6.49" length="4.79" shape="192.76,-2.56 193.10,-0.09 194.14,1.67 194.36,1.80"/>
        <lane id=":Node2_10_1" index="1" disallow="pedestrian" speed="8.08" length="9.61" shape="192.76,-2.56 193.08,2.71 194.13,6.47 194.39,6.80"/>
    </edge>
    <edge id=":Node2_12" function="internal">
        <lane id=":Node2_12_0" index="0" disallow="pedestrian" speed="13.89" length="27.24" shape="192.76,-2.56 192.71,24.68"/>
    </edge>
    <edge id=":Node2_13" function="internal">
        <lane id=":Node2_13_0" index="0" disallow="pedestrian" speed="7.99" length="4.13" shape="189.56,-2.58 190.09,1.30 190.19,1.48"/>
    </edge>
    <edge id=":Node2_14" function="internal">
        <lane id=":Node2_14_0" index="0" disallow="pedestrian" speed="13.89" length="27.28" shape="189.56,-2.58 189.51,24.69"/>
    </edge>
    <edge id=":Node2_15" function="internal">
        <lane id=":Node2_15_0" index="0" disallow="pedestrian" speed="11.54" length="13.29" shape="189.56,-2.58 187.85,4.56 184.74,9.62"/>
        <lane id=":Node2_15_1" index="1" disallow="pedestrian" speed="11.42" length="13.36" shape="189.56,-2.58 188.36,5.52 185.70,9.95"/>
    </edge>
    <edge id=":Node2_17" function="internal">
        <lane id=":Node2_17_0" index="0" disallow="pedestrian" speed="13.89" length="27.31" shape="186.36,-2.61 186.31,24.71"/>
    </edge>
    <edge id=":Node2_18" function="internal">
        <lane id=":Node2_18_0" index="0" disallow="pedestrian" speed="10.16" length="4.89" shape="186.36,-2.61 185.15,2.13"/>
    </edge>
    <edge id=":Node2_30" function="internal">
        <lane id=":Node2_30_0" index="0" disallow="pedestrian" speed="6.49" length="4.28" shape="194.36,1.80 195.90,2.72 198.37,3.06"/>
        <lane id=":Node2_30_1" index="0" disallow="pedestrian" speed="8.08" length="5.05" shape="194.39,6.80 195.90,8.72 198.41,9.46"/>
    </edge>
    <edge id=":Node2_31" function="internal">
        <lane id=":Node2_31_0" index="0" disallow="pedestrian" speed="7.99" length="10.16" shape="190.19,1.48 191.74,4.07 194.50,5.72 198.39,6.26"/>
    </edge>
    <edge id=":Node2_32" function="internal">
        <lane id=":Node2_32_0" index="0" disallow="pedestrian" speed="11.54" length="17.18" shape="184.74,9.62 183.52,11.62 177.59,17.00 171.10,19.15"/>
        <lane id=":Node2_32_1" index="0" disallow="pedestrian" speed="11.42" length="16.42" shape="185.70,9.95 184.88,11.31 179.12,14.79 171.10,15.95"/>
    </edge>
    <edge id=":Node2_33" function="internal">
        <lane id=":Node2_33_0" index="0" disallow="pedestrian" speed="10.16" length="18.49" shape="185.15,2.13 184.97,2.84 181.42,7.78 176.52,11.37 171.09,12.75"/>
    </edge>
    <edge id=":Node2_19" function="internal">
        <lane id=":Node2_19_0" index="0" disallow="pedestrian" speed="6.60" length="5.02" shape="171.08,3.15 173.55,2.79 175.32,1.69 175.54,1.31"/>
        <lane id=":Node2_19_1" index="1" disallow="pedestrian" speed="8.17" length="9.77" shape="171.08,3.15 176.35,2.79 180.12,1.70 180.56,1.35"/>
    </edge>
    <edge id=":Node2_21" function="internal">
        <lane id=":Node2_21_0" index="0" disallow="pedestrian" speed="13.89" length="27.28" shape="171.08,3.15 198.37,3.06"/>
    </edge>
    <edge id=":Node2_22" function="internal">
        <lane id=":Node2_22_0" index="0" disallow="pedestrian" speed="8.08" length="4.07" shape="171.09,6.35 174.95,5.79 175.09,5.70"/>
    </edge>
    <edge id=":Node2_23" function="internal">
        <lane id=":Node2_23_0" index="0" disallow="pedestrian" speed="13.89" length="27.31" shape="171.09,6.35 198.39,6.26"/>
        <lane id=":Node2_23_1" index="1" disallow="pedestrian" speed="13.89" length="27.31" shape="171.09,9.55 198.41,9.46"/>
    </edge>
    <edge id=":Node2_25" function="internal">
        <lane id=":Node2_25_0" index="0" disallow="pedestrian" speed="10.37" length="4.93" shape="171.09,9.55 175.97,10.25"/>
    </edge>
    <edge id=":Node2_34" function="internal">
        <lane id=":Node2_34_0" index="0" disallow="pedestrian" speed="6.60" length="4.25" shape="175.54,1.31 176.39,-0.13 176.76,-2.68"/>
        <lane id=":Node2_34_1" index="0" disallow="pedestrian" speed="8.17" length="4.98" shape="180.56,1.35 182.39,-0.10 183.16,-2.63"/>
    </edge>
    <edge id=":Node2_35" function="internal">
        <lane id=":Node2_35_0" index="0" disallow="pedestrian" speed="8.08" length="10.33" shape="175.09,5.70 177.71,4.10 179.38,1.28 179.96,-2.65"/>
    </edge>
    <edge id=":Node2_36" function="internal">
        <lane id=":Node2_36_0" index="0" disallow="pedestrian" speed="10.37" length="19.55" shape="175.97,10.25 177.73,10.50 182.48,13.33 185.34,18.07 186.31,24.71"/>
    </edge>
    <edge id=":Node2_c0" function="crossing" crossingEdges="Node7_7_NB Node2_7_SB">
        <lane id=":Node2_c0_0" index="0" allow="pedestrian" speed="2.78" length="19.20" width="4.00" shape="194.31,22.68 175.11,22.75" outlineShape="194.41,24.68 175.01,24.75 175.00,23.53 174.66,22.53 174.10,21.75 173.32,21.20 172.99,21.09 175.10,20.75 194.30,20.68 196.41,21.03 196.16,21.11 195.35,21.67 194.77,22.45 194.42,23.45"/>
    </edge>
    <edge id=":Node2_c1" function="crossing" crossingEdges="Node2_3_EB Node2_3_WB">
        <lane id=":Node2_c1_0" index="0" allow="pedestrian" speed="2.78" length="19.20" width="4.00" shape="196.36,1.47 196.48,20.67" outlineShape="198.36,1.36 198.48,20.76 197.20,20.77 196.16,21.11 195.35,21.67 194.77,22.45 194.67,22.74 194.48,20.68 194.36,1.48 194.69,-0.63 194.79,-0.31 195.35,0.47 196.13,1.02 197.13,1.35"/>
    </edge>
    <edge id=":Node2_c2" function="crossing" crossingEdges="Node2_5_SB Node2_5_NB">
        <lane id=":Node2_c2_0" index="0" allow="pedestrian" speed="2.78" length="19.20" width="4.00" shape="175.15,-0.69 194.35,-0.55" outlineShape="175.06,-2.69 194.36,-2.55 194.46,-1.32 194.79,-0.31 195.35,0.47 196.13,1.02 196.44,1.13 194.33,1.45 175.13,1.31 173.09,1.17 173.34,1.08 174.13,0.49 174.70,-0.33 175.04,-1.39"/>
    </edge>
    <edge id=":Node2_c3" function="crossing" crossingEdges="Node1_2_WB Node1_2_EB">
        <lane id=":Node2_c3_0" index="0" allow="pedestrian" speed="2.78" length="19.20" width="4.00" shape="173.10,20.75 173.08,1.55" outlineShape="171.10,20.75 171.08,1.55 172.32,1.44 173.34,1.08 174.13,0.49 174.70,-0.33 175.04,-1.39 175.08,-1.81 175.11,24.75 175.00,23.53 174.66,22.53 174.10,21.75 173.32,21.20 172.32,20.86"/>
    </edge>
    <edge id=":Node2_w0" function="walkingarea">
        <lane id=":Node2_w0_0" index="0" allow="pedestrian" speed="2.78" length="3.30" width="4.00" shape="171.10,20.75 171.11,22.75 173.11,24.76 175.11,24.75 175.00,23.53 174.66,22.53 174.10,21.75 173.32,21.20 172.32,20.86"/>
    </edge>
    <edge id=":Node2_w1" function="walkingarea">
        <lane id=":Node2_w1_0" index="0" allow="pedestrian" speed="2.78" length="3.38" width="4.00" shape="194.31,24.68 196.31,24.67 198.49,22.65 198.48,20.66 197.20,20.77 196.16,21.11 195.35,21.67 194.77,22.45 194.42,23.45"/>
    </edge>
    <edge id=":Node2_w2" function="walkingarea">
        <lane id=":Node2_w2_0" index="0" allow="pedestrian" speed="2.78" length="3.30" width="4.00" shape="198.36,1.46 198.35,-0.54 196.36,-2.53 194.36,-2.55 194.46,-1.32 194.79,-0.31 195.35,0.47 196.13,1.02 197.13,1.35"/>
    </edge>
    <edge id=":Node2_w3" function="walkingarea">
        <lane id=":Node2_w3_0" index="0" allow="pedestrian" speed="2.78" length="3.44" width="4.00" shape="175.16,-2.69 173.16,-2.70 171.08,-0.45 171.08,1.55 172.32,1.44 173.34,1.08 174.13,0.49 174.70,-0.33 175.04,-1.39"/>
    </edge>
    <edge id=":Node3_0" function="internal">
        <lane id=":Node3_0_0" index="0" disallow="pedestrian" speed="6.75" length="5.39" shape="312.93,24.87 312.54,22.02 311.48,19.99 311.30,19.87"/>
    </edge>
    <edge id=":Node3_1" function="internal">
        <lane id=":Node3_1_0" index="0" disallow="pedestrian" speed="13.89" length="28.00" shape="312.93,24.87 313.07,-3.18"/>
        <lane id=":Node3_1_1" index="1" disallow="pedestrian" speed="13.89" length="28.00" shape="316.12,24.83 316.27,-3.16"/>
        <lane id=":Node3_1_2" index="2" disallow="pedestrian" speed="13.89" length="28.00" shape="319.32,24.79 319.47,-3.14"/>
    </edge>
    <edge id=":Node3_12" function="internal">
        <lane id=":Node3_12_0" index="0" disallow="pedestrian" speed="6.75" length="4.38" shape="311.30,19.87 309.73,18.78 307.29,18.38"/>
    </edge>
    <edge id=":Node3_4" function="internal">
        <lane id=":Node3_4_0" index="0" disallow="pedestrian" speed="13.89" length="27.82" shape="329.07,-3.08 328.92,24.68"/>
        <lane id=":Node3_4_1" index="1" disallow="pedestrian" speed="13.89" length="27.82" shape="325.87,-3.10 325.72,24.72"/>
        <lane id=":Node3_4_2" index="2" disallow="pedestrian" speed="13.89" length="27.82" shape="322.67,-3.12 322.52,24.76"/>
    </edge>
    <edge id=":Node3_7" function="internal">
        <lane id=":Node3_7_0" index="0" disallow="pedestrian" speed="10.93" length="5.88" shape="322.67,-3.12 321.93,2.71"/>
        <lane id=":Node3_7_1" index="1" disallow="pedestrian" speed="10.42" length="4.88" shape="322.67,-3.12 321.93,1.71"/>
    </edge>
    <edge id=":Node3_13" function="internal">
        <lane id=":Node3_13_0" index="0" disallow="pedestrian" speed="10.93" length="21.26" shape="321.93,2.71 321.66,4.85 318.76,10.56 313.96,14.01 307.27,15.18"/>
        <lane id=":Node3_13_1" index="0" disallow="pedestrian" speed="10.42" length="19.66" shape="321.93,1.71 321.67,3.45 318.76,8.16 313.96,11.01 307.25,11.98"/>
    </edge>
    <edge id=":Node3_9" function="internal">
        <lane id=":Node3_9_0" index="0" disallow="pedestrian" speed="6.59" length="4.89" shape="307.19,2.38 309.75,2.02 311.58,0.98 311.69,0.81"/>
    </edge>
    <edge id=":Node3_10" function="internal">
        <lane id=":Node3_10_0" index="0" disallow="pedestrian" speed="11.50" length="26.28" shape="307.21,5.58 315.22,6.74 320.98,10.31 324.48,16.30 325.13,20.72"/>
        <lane id=":Node3_10_1" index="1" disallow="pedestrian" speed="10.52" length="21.14" shape="307.23,8.78 313.85,9.75 318.60,12.73 321.50,17.73 321.94,20.76"/>
    </edge>
    <edge id=":Node3_14" function="internal">
        <lane id=":Node3_14_0" index="0" disallow="pedestrian" speed="6.59" length="4.31" shape="311.69,0.81 312.69,-0.76 313.07,-3.18"/>
    </edge>
    <edge id=":Node3_15" function="internal">
        <lane id=":Node3_15_0" index="0" disallow="pedestrian" speed="11.50" length="4.04" shape="325.13,20.72 325.72,24.72"/>
        <lane id=":Node3_15_1" index="0" disallow="pedestrian" speed="10.52" length="4.04" shape="321.94,20.76 322.52,24.76"/>
    </edge>
    <edge id=":Node3_c0" function="crossing" crossingEdges="E11 -E11">
        <lane id=":Node3_c0_0" index="0" allow="pedestrian" speed="2.78" length="19.20" width="4.00" shape="330.50,22.66 311.30,22.89" outlineShape="330.52,24.66 311.33,24.89 311.20,23.39 310.85,22.15 310.29,21.20 309.96,20.91 330.48,20.66 330.52,24.66"/>
    </edge>
    <edge id=":Node3_c1" function="crossing" crossingEdges="E5 -E5">
        <lane id=":Node3_c1_0" index="0" allow="pedestrian" speed="2.78" length="19.20" width="4.00" shape="311.45,-1.19 330.65,-1.07" outlineShape="311.47,-3.19 330.67,-3.07 330.64,0.93 311.44,0.81 309.32,0.40 309.55,0.33 310.38,-0.22 310.98,-0.99 311.34,-1.98"/>
    </edge>
    <edge id=":Node3_c2" function="crossing" crossingEdges="Node2_3_WB Node2_3_EB">
        <lane id=":Node3_c2_0" index="0" allow="pedestrian" speed="2.78" length="19.20" width="4.00" shape="309.30,19.97 309.18,0.77" outlineShape="307.30,19.98 307.18,0.78 308.48,0.67 309.55,0.33 310.38,-0.22 310.98,-0.99 311.08,-1.27 311.18,0.76 311.30,19.96 310.85,22.15 310.29,21.20 309.51,20.52 308.51,20.11"/>
    </edge>
    <edge id=":Node3_w0" function="walkingarea">
        <lane id=":Node3_w0_0" index="0" allow="pedestrian" speed="2.78" length="3.74" width="4.00" shape="307.30,19.98 307.31,21.98 309.33,24.92 311.33,24.89 311.20,23.39 310.85,22.15 310.29,21.20 309.51,20.52 308.51,20.11"/>
    </edge>
    <edge id=":Node3_w1" function="walkingarea">
        <lane id=":Node3_w1_0" index="0" allow="pedestrian" speed="2.78" length="17.90" width="4.00" shape="330.48,20.66 330.52,24.66 332.52,24.64 332.67,-3.05 330.67,-3.07 330.64,0.93"/>
    </edge>
    <edge id=":Node3_w2" function="walkingarea">
        <lane id=":Node3_w2_0" index="0" allow="pedestrian" speed="2.78" length="3.41" width="4.00" shape="311.47,-3.19 309.47,-3.21 307.17,-1.22 307.18,0.78 308.48,0.67 309.55,0.33 310.38,-0.22 310.98,-0.99 311.34,-1.98"/>
    </edge>
    <edge id=":Node4_0" function="internal">
        <lane id=":Node4_0_0" index="0" disallow="pedestrian" speed="5.37" length="5.76" shape="53.31,-78.75 51.75,-78.51 50.64,-77.83 49.97,-76.71 49.75,-75.15"/>
        <lane id=":Node4_0_1" index="1" disallow="pedestrian" speed="7.11" length="6.67" shape="53.27,-81.95 50.33,-81.50 48.23,-80.21 47.60,-79.15"/>
        <lane id=":Node4_0_2" index="2" disallow="pedestrian" speed="8.50" length="11.95" shape="53.23,-85.15 48.91,-84.48 45.82,-82.59 43.97,-79.48 43.92,-79.15"/>
    </edge>
    <edge id=":Node4_6" function="internal">
        <lane id=":Node4_6_0" index="0" disallow="pedestrian" speed="7.11" length="4.20" shape="47.60,-79.15 46.97,-78.10 46.55,-75.15"/>
        <lane id=":Node4_6_1" index="0" disallow="pedestrian" speed="8.50" length="4.04" shape="43.92,-79.15 43.35,-75.15"/>
    </edge>
    <edge id=":Node4_3" function="internal">
        <lane id=":Node4_3_0" index="0" disallow="pedestrian" speed="11.72" length="31.35" shape="33.75,-75.15 34.96,-83.65 38.59,-89.74 44.65,-93.44 53.13,-94.75"/>
        <lane id=":Node4_3_1" index="1" disallow="pedestrian" speed="10.75" length="26.23" shape="36.95,-75.15 37.96,-82.26 41.00,-87.36 46.07,-90.46 53.16,-91.55"/>
        <lane id=":Node4_3_2" index="2" disallow="pedestrian" speed="9.69" length="21.11" shape="40.15,-75.15 40.96,-80.87 43.41,-84.98 47.49,-87.47 53.20,-88.35"/>
    </edge>
    <edge id=":Node4_c0" function="crossing" crossingEdges="-E7 E7">
        <lane id=":Node4_c0_0" index="0" allow="pedestrian" speed="2.78" length="19.20" width="4.00" shape="51.11,-96.33 51.33,-77.13" outlineShape="53.11,-96.35 53.32,-77.15 51.35,-75.15 53.35,-75.15 53.33,-77.05 49.33,-77.11 49.11,-96.30 49.11,-95.94"/>
    </edge>
    <edge id=":Node4_c1" function="crossing" crossingEdges="E8 -E8">
        <lane id=":Node4_c1_0" index="0" allow="pedestrian" speed="2.78" length="19.20" width="4.00" shape="51.35,-77.15 32.15,-77.16" outlineShape="51.35,-75.15 32.15,-75.16 30.51,-79.16 30.15,-75.16 32.15,-75.16 32.15,-79.16 51.35,-79.15 53.32,-77.15 52.72,-77.09 52.23,-76.92 51.84,-76.64 51.57,-76.25 51.40,-75.76"/>
    </edge>
    <edge id=":Node4_w0" function="walkingarea">
        <lane id=":Node4_w0_0" index="0" allow="pedestrian" speed="2.78" length="1.73" width="4.00" shape="51.35,-75.15 53.35,-75.15 53.32,-77.15 52.72,-77.09 52.23,-76.92 51.84,-76.64 51.57,-76.25 51.40,-75.76"/>
    </edge>
    <edge id=":Node4_w1" function="walkingarea">
        <lane id=":Node4_w1_0" index="0" allow="pedestrian" speed="2.78" length="20.14" width="4.00" shape="53.11,-96.35 53.08,-98.35 46.08,-97.63 40.34,-95.66 35.88,-92.42 32.70,-87.93 30.79,-82.17 30.15,-75.16 32.15,-75.16 32.73,-81.57 34.48,-86.82 37.39,-90.93 41.46,-93.89 46.70,-95.69"/>
    </edge>
    <edge id=":Node5_0" function="internal">
        <lane id=":Node5_0_0" index="0" disallow="pedestrian" speed="6.64" length="5.09" shape="198.88,-80.38 196.45,-79.98 194.71,-78.85 194.44,-78.36"/>
    </edge>
    <edge id=":Node5_1" function="internal">
        <lane id=":Node5_1_0" index="0" disallow="pedestrian" speed="13.89" length="27.21" shape="198.88,-80.38 171.67,-80.09"/>
    </edge>
    <edge id=":Node5_2" function="internal">
        <lane id=":Node5_2_0" index="0" disallow="pedestrian" speed="8.11" length="3.99" shape="198.85,-83.58 195.05,-82.97 194.93,-82.90"/>
        <lane id=":Node5_2_1" index="1" disallow="pedestrian" speed="8.77" length="5.48" shape="198.85,-83.58 193.65,-82.96 193.42,-82.86"/>
    </edge>
    <edge id=":Node5_4" function="internal">
        <lane id=":Node5_4_0" index="0" disallow="pedestrian" speed="13.89" length="27.22" shape="198.85,-83.58 171.64,-83.29"/>
        <lane id=":Node5_4_1" index="1" disallow="pedestrian" speed="13.89" length="27.22" shape="198.82,-86.78 171.60,-86.49"/>
    </edge>
    <edge id=":Node5_17" function="internal">
        <lane id=":Node5_17_0" index="0" disallow="pedestrian" speed="6.64" length="4.22" shape="194.44,-78.36 193.66,-76.98 193.30,-74.37"/>
    </edge>
    <edge id=":Node5_18" function="internal">
        <lane id=":Node5_18_0" index="0" disallow="pedestrian" speed="8.11" length="10.42" shape="194.93,-82.90 192.32,-81.24 190.67,-78.38 190.10,-74.39"/>
        <lane id=":Node5_18_1" index="0" disallow="pedestrian" speed="8.77" length="11.53" shape="193.42,-82.86 189.92,-81.23 187.67,-78.38 186.90,-74.42"/>
    </edge>
    <edge id=":Node5_6" function="internal">
        <lane id=":Node5_6_0" index="0" disallow="pedestrian" speed="13.89" length="27.23" shape="171.49,-96.09 198.73,-96.38"/>
        <lane id=":Node5_6_1" index="1" disallow="pedestrian" speed="13.89" length="27.23" shape="171.53,-92.89 198.76,-93.18"/>
    </edge>
    <edge id=":Node5_8" function="internal">
        <lane id=":Node5_8_0" index="0" disallow="pedestrian" speed="11.82" length="15.48" shape="171.53,-92.89 181.10,-91.83 186.32,-89.20"/>
    </edge>
    <edge id=":Node5_9" function="internal">
        <lane id=":Node5_9_0" index="0" disallow="pedestrian" speed="13.89" length="27.23" shape="171.56,-89.69 198.79,-89.98"/>
    </edge>
    <edge id=":Node5_10" function="internal">
        <lane id=":Node5_10_0" index="0" disallow="pedestrian" speed="10.87" length="6.02" shape="171.56,-89.69 177.55,-89.05"/>
        <lane id=":Node5_10_1" index="1" disallow="pedestrian" speed="10.35" length="5.03" shape="171.56,-89.69 176.55,-89.04"/>
    </edge>
    <edge id=":Node5_19" function="internal">
        <lane id=":Node5_19_0" index="0" disallow="pedestrian" speed="11.82" length="17.20" shape="186.32,-89.20 187.92,-88.39 191.99,-82.57 193.30,-74.37"/>
    </edge>
    <edge id=":Node5_20" function="internal">
        <lane id=":Node5_20_0" index="0" disallow="pedestrian" speed="10.87" length="21.43" shape="177.55,-89.05 179.71,-88.82 185.52,-85.97 188.98,-81.17 190.10,-74.39"/>
        <lane id=":Node5_20_1" index="0" disallow="pedestrian" speed="10.35" length="19.76" shape="176.55,-89.04 178.31,-88.80 183.12,-85.96 185.98,-81.17 186.90,-74.42"/>
    </edge>
    <edge id=":Node5_12" function="internal">
        <lane id=":Node5_12_0" index="0" disallow="pedestrian" speed="6.49" length="4.81" shape="177.30,-74.49 176.96,-76.97 175.91,-78.72 175.69,-78.86"/>
        <lane id=":Node5_12_1" index="1" disallow="pedestrian" speed="7.98" length="10.27" shape="180.50,-74.47 179.97,-78.37 178.31,-81.14 175.64,-82.72"/>
        <lane id=":Node5_12_2" index="2" disallow="pedestrian" speed="8.65" length="12.92" shape="180.50,-74.47 179.97,-79.77 178.32,-83.54 175.61,-85.71"/>
    </edge>
    <edge id=":Node5_15" function="internal">
        <lane id=":Node5_15_0" index="0" disallow="pedestrian" speed="11.44" length="25.66" shape="180.50,-74.47 181.69,-82.59 185.13,-88.41 190.82,-91.94 194.76,-92.56"/>
        <lane id=":Node5_15_1" index="1" disallow="pedestrian" speed="10.45" length="20.56" shape="183.70,-74.44 184.68,-81.19 187.53,-86.02 192.23,-88.95 194.79,-89.35"/>
    </edge>
    <edge id=":Node5_21" function="internal">
        <lane id=":Node5_21_0" index="0" disallow="pedestrian" speed="6.49" length="4.28" shape="175.69,-78.86 174.15,-79.77 171.67,-80.09"/>
        <lane id=":Node5_21_1" index="0" disallow="pedestrian" speed="7.98" length="4.06" shape="175.64,-82.72 175.54,-82.78 171.64,-83.29"/>
        <lane id=":Node5_21_2" index="0" disallow="pedestrian" speed="8.65" length="4.10" shape="175.61,-85.71 175.53,-85.78 171.60,-86.49"/>
    </edge>
    <edge id=":Node5_22" function="internal">
        <lane id=":Node5_22_0" index="0" disallow="pedestrian" speed="11.44" length="4.04" shape="194.76,-92.56 198.76,-93.18"/>
        <lane id=":Node5_22_1" index="0" disallow="pedestrian" speed="10.45" length="4.04" shape="194.79,-89.35 198.79,-89.98"/>