<?xml version="1.0" encoding="UTF-8"?>

<!-- generated on 2025-12-20T16:58:15.168415+00:00 by Eclipse SUMO netedit 1.25.0
-->

<routes xmlns:xsi="http://www.w3.org/2001/XMLSchema-instance" xsi:noNamespaceSchemaLocation="http://sumo.dlr.de/xsd/routes_file.xsd">
    <!-- VTypes -->
    <vType id="DEFAULT_VEHTYPE" vClass="authority"/>
    <vType id="bus" vClass="bus" color="red"/>
    <vType id="emerg" vClass="emergency" guiShape="emergency"/>
    <vType id="t_0"/>
    <vType id="t_1"/>
    <vType id="t_2"/>
    <vType id="t_3"/>
    <vType id="truck" vClass="truck" color="magenta"/>
    <!-- Vehicles, persons and containers (sorted by depart) -->
    <trip id="t_0" type="truck" depart="0.00" from="-E5" to="-E5" via="Node2_3_WB Node1_2_WB -E8 -E7 -E6"/>
    <trip id="t_1" type="emerg" depart="0.00" from="Node1_2_EB" to="Node1_2_EB" via="Node2_3_EB E5 E6 E7 E8"/>
    <trip id="t_2" type="bus" depart="0.00" from="Node2_7_SB" to="Node7_7_NB" via="Node2_5_SB E7 E8 Node1_2_EB"/>
    <flow id="f_0" begin="0.00" end="3600.00" perHour="1800.00" from="Node2_7_SB" to="Node2_5_SB"/>
    <flow id="f_2" begin="0.00" end="3600.00" perHour="1800.00" from="Node1_2_EB" to="E7" via="Node2_3_EB E5 E6"/>
</routes>
