<?xml version="1.0" encoding="UTF-8"?>

<!-- generated on 2026-01-01T23:19:44.772878+00:00 by Eclipse SUMO netedit 1.25.0
-->

<routes xmlns:xsi="http://www.w3.org/2001/XMLSchema-instance" xsi:noNamespaceSchemaLocation="http://sumo.dlr.de/xsd/routes_file.xsd">
    <!-- VTypes -->
    <vType id="DEFAULT_VEHTYPE" color="blue"/>
    <vType id="bus" vClass="bus" color="yellow"/>
    <vType id="emergency" vClass="emergency" guiShape="emergency"/>
    <vType id="police" vClass="authority" guiShape="police"/>
    <vType id="t_0"/>
    <vType id="t_1" color="green"/>
    <vType id="t_2" color="cyan"/>
    <vType id="trailer" vClass="trailer" color="255,13,0,0"/>
    <vType id="truck" vClass="truck" color="red"/>
    <!-- Vehicles, persons and containers (sorted by depart) -->
    <trip id="t_0" type="truck" depart="0.00" from="E10" to="E10" via="Node2_7_SB Node1_2_WB -E8 -E7 -E6 -E5 Node2_3_WB Node7_7_NB -E10 -E13 Node1_2_EB Node7_7_NB -E10"/>
    <trip id="t_1" type="bus" depart="0.00" from="Node2_7_SB" to="Node2_7_SB" via="E10"/>
    <trip id="t_10" type="trailer" depart="0.00" color="179,211,201" from="E8" to="E8" via="E13 -E11 E6 Node2_5_NB Node1_2_WB E13"/>
    <trip id="t_11" type="t_2" depart="0.00" color="blue" from="-E5" to="-E5" via="E11 -E12 Node2_7_SB Node2_5_SB -E6"/>
    <trip id="t_2" type="emergency" depart="0.00" from="Node2_3_WB" to="Node2_3_WB" via="Node1_2_WB -E8 -E7 Node2_5_NB Node2_3_EB"/>
    <trip id="t_3" type="trailer" depart="0.00" from="-E5" to="-E5" via="Node2_3_WB Node1_2_WB -E8 -E7 -E6"/>
    <trip id="t_4" type="t_1" depart="0.00" from="E13" to="E13" via="E10 Node2_7_SB Node2_5_SB -E6 -E5 Node2_3_WB Node1_2_WB"/>
    <trip id="t_5" type="t_1" depart="0.00" color="green" from="E13" to="E13" via="E10 Node2_5_SB E7"/>
    <trip id="t_6" type="police" depart="0.00" color="cyan" from="E6" to="E6" via="E7"/>
    <trip id="t_7" type="t_1" depart="0.00" color="179,137,71" from="Node1_2_EB" to="Node1_2_EB" via="Node2_3_EB E8"/>
    <trip id="t_8" type="bus" depart="0.00" color="magenta" from="E6" to="E6" via="E7 E8 E10 E12 -E11 Node2_3_EB"/>
    <trip id="t_9" type="t_1" depart="0.00" color="179,63,201" from="-E10" to="-E10" via="-E13 -E8"/>
    <personFlow id="pf_0" begin="0.00" end="3600.00" period="exp(0.5)">
        <personTrip from="-E10" to="Node2_7_SB"/>
    </personFlow>
    <personFlow id="pf_1" begin="0.00" end="3600.00" period="exp(0.5)">
        <personTrip from="E7" to="Node2_7_SB"/>
    </personFlow>
    <personFlow id="pf_2" begin="0.00" end="3600.00" period="exp(0.5)">
        <personTrip from="-E11" to="E10"/>
    </personFlow>
    <personFlow id="pf_3" begin="0.00" end="3600.00" period="exp(0.5)">
        <personTrip from="E10" to="-E6"/>
    </personFlow>
    <personFlow id="pf_4" begin="0.00" end="3600.00" period="exp(0.5)">
        <personTrip from="Node2_5_NB" to="-E11"/>
    </personFlow>
    <personFlow id="pf_5" begin="0.00" end="3600.00" period="exp(0.5)">
        <personTrip from="E6" to="E8"/>
    </personFlow>
    <personFlow id="pf_6" begin="0.00" end="3600.00" period="exp(0.5)">
        <personTrip from="-E11" to="E6"/>
    </personFlow>
</routes>
