<?xml version="1.0" encoding="UTF-8"?>

<!-- generated on 2026-01-03T22:25:56.581892+00:00 by Eclipse SUMO netedit 1.25.0
-->

<routes xmlns:xsi="http://www.w3.org/2001/XMLSchema-instance" xsi:noNamespaceSchemaLocation="http://sumo.dlr.de/xsd/routes_file.xsd">
    <!-- Vehicles, persons and containers (sorted by depart) -->
    <flow id="f_0" begin="0.00" end="3600.00" perHour="1800.00" from="Node9_7" to="Node4_1" via="Node5_4"/>
    <flow id="f_1" type="DEFAULT_TAXITYPE" begin="0.00" end="3600.00" perHour="1800.00" from="Node9_3" to="Node1_4" via="Node7_7_NB Node8_1"/>
    <flow id="f_2" type="DEFAULT_PEDTYPE" begin="0.00" end="3600.00" perHour="1800.00" from="Node9_7" to="Node6_3"/>
    <personFlow id="pf_0" begin="0.00" end="3600.00" perHour="1800.00">
        <personTrip from="Node9_7" to="Node3_9"/>
    </personFlow>
    <personFlow id="pf_1" begin="0.00" end="3600.00" perHour="1800.00">
        <personTrip from="Node4_1" to="Node3_9"/>
    </personFlow>
    <personFlow id="pf_2" begin="0.00" end="3600.00" perHour="1800.00">
        <personTrip from="Node7_8" to="Node6_3"/>
    </personFlow>
</routes>
