<?xml version="1.0" encoding="UTF-8"?>

<!-- generated on 2025-12-20T15:06:26.557963+00:00 by Eclipse SUMO netedit 1.25.0
<neteditConfiguration xmlns:xsi="http://www.w3.org/2001/XMLSchema-instance" xsi:noNamespaceSchemaLocation="http://sumo.dlr.de/xsd/neteditConfiguration.xsd">

    <input>
        <sumocfg-file value="C:\Users\DELL\Desktop\Trafic Lights\SUMO-Traffic-Simulator-Tutorial-main\SUMO-Traffic-Simulator-Tutorial-main\RL.sumocfg"/>
        <additional-files value="C:\Users\DELL\Desktop\Trafic Lights\SUMO-Traffic-Simulator-Tutorial-main\SUMO-Traffic-Simulator-Tutorial-main\RL.add.xml"/>
        <route-files value="C:\Users\DELL\Desktop\Trafic Lights\SUMO-Traffic-Simulator-Tutorial-main\SUMO-Traffic-Simulator-Tutorial-main\RL.rou.xml"/>
        <sumo-net-file value="C:\Users\DELL\Desktop\Trafic Lights\SUMO-Traffic-Simulator-Tutorial-main\SUMO-Traffic-Simulator-Tutorial-main\RL.net.xml"/>
    </input>

    <output>
        <output-file value="C:\Users\DELL\Desktop\Trafic Lights\SUMO-Traffic-Simulator-Tutorial-main\SUMO-Traffic-Simulator-Tutorial-main\RL.net.xml"/>
    </output>

    <processing>
        <offset.disable-normalization value="true"/>
    </processing>

    <junctions>
        <no-turnarounds value="true"/>
    </junctions>

    <netedit>
        <new-network value="false"/>
    </netedit>

</neteditConfiguration>
-->

<net version="1.20" junctionCornerDetail="5" limitTurnSpeed="5.50" xmlns:xsi="http://www.w3.org/2001/XMLSchema-instance" xsi:noNamespaceSchemaLocation="http://sumo.dlr.de/xsd/net_file.xsd">

    <location netOffset="0.00,0.00" convBoundary="27.27,-90.26,321.63,88.59" origBoundary="10000000000.00,10000000000.00,-10000000000.00,-10000000000.00" projParameter="!"/>

    <edge id=":Node1_0" function="internal">
        <lane id=":Node1_0_0" index="0" speed="11.11" length="29.04" shape="37.24,19.62 29.32,18.54 23.72,15.18 20.46,9.52 19.52,1.59"/>
        <lane id=":Node1_0_1" index="1" speed="10.09" length="23.76" shape="37.22,16.42 30.73,15.54 26.16,12.78 23.48,8.16 22.71,1.66"/>
        <lane id=":Node1_0_2" index="2" speed="8.96" length="18.48" shape="37.19,13.22 32.15,12.53 28.59,10.39 26.51,6.79 25.91,1.74"/>
    </edge>
    <edge id=":Node1_3" function="internal">
        <lane id=":Node1_3_0" index="0" speed="3.90" length="2.64" shape="35.51,1.98 35.60,2.70 35.89,3.21 36.40,3.52 37.12,3.62"/>
        <lane id=":Node1_3_1" index="1" speed="6.07" length="7.92" shape="32.31,1.90 32.57,4.06 33.46,5.61 34.99,6.52 37.15,6.82"/>
        <lane id=":Node1_3_2" index="2" speed="7.65" length="13.20" shape="29.11,1.82 29.54,5.43 31.03,8.00 33.57,9.53 37.17,10.02"/>
    </edge>
    <edge id=":Node2_0" function="internal">
        <lane id=":Node2_0_0" index="0" speed="6.69" length="9.47" shape="177.01,24.56 176.59,21.95 175.47,20.09 173.66,18.98 171.15,18.63"/>
    </edge>
    <edge id=":Node2_1" function="internal">
        <lane id=":Node2_1_0" index="0" speed="13.89" length="27.50" shape="177.01,24.56 176.60,-3.01"/>
        <lane id=":Node2_1_1" index="1" speed="13.89" length="27.50" shape="180.21,24.48 179.80,-3.02"/>
        <lane id=":Node2_1_2" index="2" speed="13.89" length="27.50" shape="183.41,24.39 183.00,-3.04"/>
    </edge>
    <edge id=":Node2_4" function="internal">
        <lane id=":Node2_4_0" index="0" speed="10.33" length="5.37" shape="183.41,24.39 184.04,19.06"/>
    </edge>
    <edge id=":Node2_20" function="internal">
        <lane id=":Node2_20_0" index="0" speed="10.33" length="19.41" shape="184.04,19.06 184.21,17.63 186.98,12.79 191.74,9.88 198.49,8.91"/>
    </edge>
    <edge id=":Node2_5" function="internal">
        <lane id=":Node2_5_0" index="0" speed="6.46" length="9.03" shape="198.50,18.51 196.04,18.86 194.31,19.92 193.30,21.69 193.01,24.15"/>
    </edge>
    <edge id=":Node2_6" function="internal">
        <lane id=":Node2_6_0" index="0" speed="13.89" length="27.38" shape="198.50,18.51 171.15,18.63"/>
        <lane id=":Node2_6_1" index="1" speed="13.89" length="27.38" shape="198.50,15.31 171.12,15.43"/>
        <lane id=":Node2_6_2" index="2" speed="13.89" length="27.38" shape="198.49,12.11 171.10,12.23"/>
    </edge>
    <edge id=":Node2_9" function="internal">
        <lane id=":Node2_9_0" index="0" speed="10.41" length="5.00" shape="198.49,12.11 193.54,11.42"/>
    </edge>
    <edge id=":Node2_21" function="internal">
        <lane id=":Node2_21_0" index="0" speed="10.41" length="19.69" shape="193.54,11.42 191.74,11.17 186.91,8.33 183.99,3.60 183.00,-3.04"/>
    </edge>
    <edge id=":Node2_10" function="internal">
        <lane id=":Node2_10_0" index="0" speed="6.58" length="9.24" shape="192.60,-3.08 192.97,-0.63 194.08,1.11 195.91,2.16 198.47,2.51"/>
    </edge>
    <edge id=":Node2_11" function="internal">
        <lane id=":Node2_11_0" index="0" speed="13.89" length="27.30" shape="192.60,-3.08 193.01,24.15"/>
        <lane id=":Node2_11_1" index="1" speed="13.89" length="27.30" shape="189.40,-3.07 189.81,24.23"/>
        <lane id=":Node2_11_2" index="2" speed="13.89" length="27.30" shape="186.20,-3.05 186.61,24.31"/>
    </edge>
    <edge id=":Node2_14" function="internal">
        <lane id=":Node2_14_0" index="0" speed="10.37" length="4.68" shape="186.20,-3.05 185.56,1.59"/>
    </edge>
    <edge id=":Node2_22" function="internal">
        <lane id=":Node2_22_0" index="0" speed="10.37" length="19.80" shape="185.56,1.59 185.28,3.59 182.46,8.35 177.73,11.23 171.10,12.23"/>
    </edge>
    <edge id=":Node2_15" function="internal">
        <lane id=":Node2_15_0" index="0" speed="6.51" length="9.03" shape="171.03,2.63 173.47,2.26 175.22,1.20 176.26,-0.56 176.60,-3.01"/>
    </edge>
    <edge id=":Node2_16" function="internal">
        <lane id=":Node2_16_0" index="0" speed="13.89" length="27.43" shape="171.03,2.63 198.47,2.51"/>
        <lane id=":Node2_16_1" index="1" speed="13.89" length="27.43" shape="171.05,5.83 198.48,5.71"/>
        <lane id=":Node2_16_2" index="2" speed="13.89" length="27.43" shape="171.07,9.03 198.49,8.91"/>
    </edge>
    <edge id=":Node2_19" function="internal">
        <lane id=":Node2_19_0" index="0" speed="10.48" length="5.04" shape="171.07,9.03 176.07,9.72"/>
    </edge>
    <edge id=":Node2_23" function="internal">
        <lane id=":Node2_23_0" index="0" speed="10.48" length="19.71" shape="176.07,9.72 177.72,9.94 182.53,12.80 185.49,17.59 186.61,24.31"/>
    </edge>
    <edge id=":Node3_0" function="internal">
        <lane id=":Node3_0_0" index="0" speed="11.13" length="27.92" shape="327.73,1.08 326.50,8.61 323.16,13.99 317.72,17.23 310.17,18.32"/>
        <lane id=":Node3_0_1" index="1" speed="10.10" length="22.85" shape="324.54,1.02 323.53,7.18 320.79,11.58 316.34,14.23 310.16,15.12"/>
        <lane id=":Node3_0_2" index="2" speed="8.96" length="17.77" shape="321.34,0.95 320.55,5.74 318.43,9.17 314.96,11.22 310.16,11.92"/>
    </edge>
    <edge id=":Node3_3" function="internal">
        <lane id=":Node3_3_0" index="0" speed="3.91" length="2.54" shape="310.14,2.32 310.83,2.22 311.32,1.92 311.63,1.43 311.74,0.75"/>
        <lane id=":Node3_3_1" index="1" speed="6.08" length="7.62" shape="310.15,5.52 312.21,5.22 313.69,4.34 314.60,2.87 314.94,0.82"/>
        <lane id=":Node3_3_2" index="2" speed="7.66" length="12.69" shape="310.15,8.72 313.58,8.22 316.06,6.75 317.58,4.31 318.14,0.88"/>
    </edge>
    <edge id=":Node4_0" function="internal">
        <lane id=":Node4_0_0" index="0" speed="3.91" length="2.51" shape="39.06,-79.97 38.38,-79.86 37.89,-79.56 37.59,-79.08 37.48,-78.41"/>
        <lane id=":Node4_0_1" index="1" speed="6.08" length="7.52" shape="39.01,-83.17 36.98,-82.85 35.52,-81.96 34.62,-80.51 34.28,-78.48"/>
        <lane id=":Node4_0_2" index="2" speed="7.66" length="12.53" shape="38.95,-86.37 35.58,-85.83 33.15,-84.35 31.65,-81.93 31.08,-78.56"/>
    </edge>
    <edge id=":Node4_3" function="internal">
        <lane id=":Node4_3_0" index="0" speed="11.13" length="27.56" shape="21.49,-78.80 22.72,-86.21 26.02,-91.54 31.38,-94.79 38.80,-95.96"/>
        <lane id=":Node4_3_1" index="1" speed="10.11" length="22.55" shape="24.69,-78.72 25.70,-84.78 28.40,-89.14 32.78,-91.81 38.85,-92.77"/>
        <lane id=":Node4_3_2" index="2" speed="8.97" length="17.54" shape="27.88,-78.64 28.67,-83.36 30.77,-86.75 34.18,-88.82 38.90,-89.57"/>
    </edge>
    <edge id=":Node5_0" function="internal">
        <lane id=":Node5_0_0" index="0" speed="6.48" length="9.03" shape="176.25,-76.52 175.89,-78.97 174.83,-80.71 173.07,-81.73 170.61,-82.04"/>
        <lane id=":Node5_0_1" index="1" speed="7.98" length="14.23" shape="179.45,-76.53 178.88,-80.40 177.21,-83.14 174.44,-84.75 170.56,-85.24"/>
    </edge>
    <edge id=":Node5_2" function="internal">
        <lane id=":Node5_2_0" index="0" speed="11.35" length="29.83" shape="179.45,-76.53 180.57,-84.64 184.02,-90.42 189.80,-93.87 197.91,-94.99"/>
        <lane id=":Node5_2_1" index="1" speed="10.35" length="24.64" shape="182.65,-76.55 183.58,-83.24 186.43,-88.02 191.20,-90.87 197.89,-91.79"/>
    </edge>
    <edge id=":Node5_4" function="internal">
        <lane id=":Node5_4_0" index="0" speed="6.49" length="9.04" shape="197.84,-82.19 195.39,-81.85 193.64,-80.80 192.59,-79.05 192.25,-76.59"/>
    </edge>
    <edge id=":Node5_5" function="internal">
        <lane id=":Node5_5_0" index="0" speed="13.89" length="27.30" shape="197.84,-82.19 170.61,-82.04"/>
        <lane id=":Node5_5_1" index="1" speed="13.89" length="27.30" shape="197.86,-85.39 170.56,-85.24"/>
        <lane id=":Node5_5_2" index="2" speed="13.89" length="27.30" shape="197.88,-88.59 170.51,-88.44"/>
    </edge>
    <edge id=":Node5_8" function="internal">
        <lane id=":Node5_8_0" index="0" speed="13.89" length="27.50" shape="170.36,-98.04 197.92,-98.19"/>
        <lane id=":Node5_8_1" index="1" speed="13.89" length="27.50" shape="170.41,-94.84 197.91,-94.99"/>
        <lane id=":Node5_8_2" index="2" speed="13.89" length="27.50" shape="170.46,-91.64 197.89,-91.79"/>
    </edge>
    <edge id=":Node5_11" function="internal">
        <lane id=":Node5_11_0" index="0" speed="10.87" length="6.56" shape="170.46,-91.64 176.99,-90.97"/>
        <lane id=":Node5_11_1" index="1" speed="10.35" length="5.39" shape="170.46,-91.64 175.81,-90.96"/>
    </edge>
    <edge id=":Node5_13" function="internal">
        <lane id=":Node5_13_0" index="0" speed="10.87" length="20.72" shape="176.99,-90.97 178.57,-90.81 184.37,-88.02 187.86,-83.28 189.05,-76.58"/>
        <lane id=":Node5_13_1" index="0" speed="10.35" length="19.25" shape="175.81,-90.96 177.17,-90.79 181.97,-87.99 184.86,-83.25 185.85,-76.56"/>
    </edge>
    <edge id=":Node6_0" function="internal">
        <lane id=":Node6_0_0" index="0" speed="11.12" length="28.71" shape="311.92,-97.61 319.72,-96.45 325.23,-93.07 328.47,-87.47 329.42,-79.64"/>
        <lane id=":Node6_0_1" index="1" speed="10.10" length="23.49" shape="311.90,-94.41 318.28,-93.46 322.80,-90.70 325.44,-86.11 326.22,-79.71"/>
        <lane id=":Node6_0_2" index="2" speed="8.96" length="18.27" shape="311.89,-91.21 316.85,-90.47 320.36,-88.32 322.42,-84.76 323.03,-79.78"/>
    </edge>
    <edge id=":Node6_3" function="internal">
        <lane id=":Node6_3_0" index="0" speed="3.90" length="2.61" shape="313.43,-79.98 313.34,-80.69 313.05,-81.20 312.55,-81.50 311.84,-81.61"/>
        <lane id=":Node6_3_1" index="1" speed="6.08" length="7.83" shape="316.63,-79.91 316.37,-82.04 315.48,-83.57 313.98,-84.49 311.85,-84.81"/>
        <lane id=":Node6_3_2" index="2" speed="7.65" length="13.05" shape="319.83,-79.84 319.39,-83.40 317.92,-85.95 315.41,-87.48 311.87,-88.01"/>
    </edge>

    <edge id="-E5" from="Node6" to="Node3" priority="-1">
        <lane id="-E5_0" index="0" speed="13.89" length="80.74" shape="329.42,-79.64 327.73,1.08"/>
        <lane id="-E5_1" index="1" speed="13.89" length="80.74" shape="326.22,-79.71 324.54,1.02"/>
        <lane id="-E5_2" index="2" speed="13.89" length="80.74" shape="323.03,-79.78 321.34,0.95"/>
    </edge>
    <edge id="-E6" from="Node5" to="Node6" priority="-1">
        <lane id="-E6_0" index="0" speed="13.89" length="113.99" shape="197.92,-98.19 311.92,-97.61"/>
        <lane id="-E6_1" index="1" speed="13.89" length="113.99" shape="197.91,-94.99 311.90,-94.41"/>
        <lane id="-E6_2" index="2" speed="13.89" length="113.99" shape="197.89,-91.79 311.89,-91.21"/>
    </edge>
    <edge id="-E7" from="Node4" to="Node5" priority="-1">
        <lane id="-E7_0" index="0" speed="13.89" length="131.57" shape="38.80,-95.96 170.36,-98.04"/>
        <lane id="-E7_1" index="1" speed="13.89" length="131.57" shape="38.85,-92.77 170.41,-94.84"/>
        <lane id="-E7_2" index="2" speed="13.89" length="131.57" shape="38.90,-89.57 170.46,-91.64"/>
    </edge>
    <edge id="-E8" from="Node1" to="Node4" priority="-1">
        <lane id="-E8_0" index="0" speed="13.89" length="80.41" shape="19.52,1.59 21.49,-78.80"/>
        <lane id="-E8_1" index="1" speed="13.89" length="80.41" shape="22.71,1.66 24.69,-78.72"/>
        <lane id="-E8_2" index="2" speed="13.89" length="80.41" shape="25.91,1.74 27.88,-78.64"/>
    </edge>
    <edge id="E5" from="Node3" to="Node6" priority="-1">
        <lane id="E5_0" index="0" speed="13.89" length="80.74" shape="311.74,0.75 313.43,-79.98"/>
        <lane id="E5_1" index="1" speed="13.89" length="80.74" shape="314.94,0.82 316.63,-79.91"/>
        <lane id="E5_2" index="2" speed="13.89" length="80.74" shape="318.14,0.88 319.83,-79.84"/>
    </edge>
    <edge id="E6" from="Node6" to="Node5" priority="-1">
        <lane id="E6_0" index="0" speed="13.89" length="113.99" shape="311.84,-81.61 197.84,-82.19"/>
        <lane id="E6_1" index="1" speed="13.89" length="113.99" shape="311.85,-84.81 197.86,-85.39"/>
        <lane id="E6_2" index="2" speed="13.89" length="113.99" shape="311.87,-88.01 197.88,-88.59"/>
    </edge>
    <edge id="E7" from="Node5" to="Node4" priority="-1">
        <lane id="E7_0" index="0" speed="13.89" length="131.57" shape="170.61,-82.04 39.06,-79.97"/>
        <lane id="E7_1" index="1" speed="13.89" length="131.57" shape="170.56,-85.24 39.01,-83.17"/>
        <lane id="E7_2" index="2" speed="13.89" length="131.57" shape="170.51,-88.44 38.95,-86.37"/>
    </edge>
    <edge id="E8" from="Node4" to="Node1" priority="-1">
        <lane id="E8_0" index="0" speed="13.89" length="80.41" shape="37.48,-78.41 35.51,1.98"/>
        <lane id="E8_1" index="1" speed="13.89" length="80.41" shape="34.28,-78.48 32.31,1.90"/>
        <lane id="E8_2" index="2" speed="13.89" length="80.41" shape="31.08,-78.56 29.11,1.82"/>
    </edge>
    <edge id="Node1_2_EB" from="Node1" to="Node2" priority="-1">
        <lane id="Node1_2_EB_0" index="0" speed="13.89" length="133.91" shape="37.12,3.62 171.03,2.63"/>
        <lane id="Node1_2_EB_1" index="1" speed="13.89" length="133.91" shape="37.15,6.82 171.05,5.83"/>
        <lane id="Node1_2_EB_2" index="2" speed="13.89" length="133.91" shape="37.17,10.02 171.07,9.03"/>
    </edge>
    <edge id="Node1_2_WB" from="Node2" to="Node1" priority="-1">
        <lane id="Node1_2_WB_0" index="0" speed="13.89" length="133.91" shape="171.15,18.63 37.24,19.62"/>
        <lane id="Node1_2_WB_1" index="1" speed="13.89" length="133.91" shape="171.12,15.43 37.22,16.42"/>
        <lane id="Node1_2_WB_2" index="2" speed="13.89" length="133.91" shape="171.10,12.23 37.19,13.22"/>
    </edge>
    <edge id="Node2_3_EB" from="Node2" to="Node3" priority="-1">
        <lane id="Node2_3_EB_0" index="0" speed="13.89" length="111.67" shape="198.47,2.51 310.14,2.32"/>
        <lane id="Node2_3_EB_1" index="1" speed="13.89" length="111.67" shape="198.48,5.71 310.15,5.52"/>
        <lane id="Node2_3_EB_2" index="2" speed="13.89" length="111.67" shape="198.49,8.91 310.15,8.72"/>
    </edge>
    <edge id="Node2_3_WB" from="Node3" to="Node2" priority="-1">
        <lane id="Node2_3_WB_0" index="0" speed="13.89" length="111.67" shape="310.17,18.32 198.50,18.51"/>
        <lane id="Node2_3_WB_1" index="1" speed="13.89" length="111.67" shape="310.16,15.12 198.50,15.31"/>
        <lane id="Node2_3_WB_2" index="2" speed="13.89" length="111.67" shape="310.16,11.92 198.49,12.11"/>
    </edge>
    <edge id="Node2_5_NB" from="Node5" to="Node2" priority="-1">
        <lane id="Node2_5_NB_0" index="0" speed="13.89" length="73.51" shape="192.25,-76.59 192.60,-3.08"/>
        <lane id="Node2_5_NB_1" index="1" speed="13.89" length="73.51" shape="189.05,-76.58 189.40,-3.07"/>
        <lane id="Node2_5_NB_2" index="2" speed="13.89" length="73.51" shape="185.85,-76.56 186.20,-3.05"/>
    </edge>
    <edge id="Node2_5_SB" from="Node2" to="Node5" priority="-1">
        <lane id="Node2_5_SB_0" index="0" speed="13.89" length="73.51" shape="176.60,-3.01 176.25,-76.52"/>
        <lane id="Node2_5_SB_1" index="1" speed="13.89" length="73.51" shape="179.80,-3.02 179.45,-76.53"/>
        <lane id="Node2_5_SB_2" index="2" speed="13.89" length="73.51" shape="183.00,-3.04 182.65,-76.55"/>
    </edge>
    <edge id="Node2_7_SB" from="Node7" to="Node2" priority="-1">
        <lane id="Node2_7_SB_0" index="0" speed="13.89" length="64.26" shape="178.63,88.79 177.01,24.56"/>
        <lane id="Node2_7_SB_1" index="1" speed="13.89" length="64.26" shape="181.83,88.71 180.21,24.48"/>
        <lane id="Node2_7_SB_2" index="2" speed="13.89" length="64.26" shape="185.03,88.63 183.41,24.39"/>
    </edge>
    <edge id="Node7_7_NB" from="Node2" to="Node7" priority="-1">
        <lane id="Node7_7_NB_0" index="0" speed="13.89" length="64.26" shape="193.01,24.15 194.63,88.39"/>
        <lane id="Node7_7_NB_1" index="1" speed="13.89" length="64.26" shape="189.81,24.23 191.43,88.47"/>
        <lane id="Node7_7_NB_2" index="2" speed="13.89" length="64.26" shape="186.61,24.31 188.23,88.55"/>
    </edge>

    <tlLogic id="Node2" type="static" programID="0" offset="0">
        <phase duration="42" state="rrrrrGGGGgrrrrrGGGGg"/>
        <phase duration="3"  state="rrrrryyyyyrrrrryyyyy"/>
        <phase duration="42" state="GGGGgrrrrrGGGGgrrrrr"/>
        <phase duration="3"  state="yyyyyrrrrryyyyyrrrrr"/>
    </tlLogic>
    <tlLogic id="Node5" type="static" programID="0" offset="0">
        <phase duration="42" state="rrrrGGGGGGGgg"/>
        <phase duration="3"  state="rrrrGyyyyyyyy"/>
        <phase duration="42" state="GGGGGrrrrrrrr"/>
        <phase duration="3"  state="yyyyGrrrrrrrr"/>
    </tlLogic>

    <junction id="Node1" type="priority" x="27.27" y="11.69" incLanes="Node1_2_WB_0 Node1_2_WB_1 Node1_2_WB_2 E8_0 E8_1 E8_2" intLanes=":Node1_0_0 :Node1_0_1 :Node1_0_2 :Node1_3_0 :Node1_3_1 :Node1_3_2" shape="37.25,21.22 37.11,2.02 17.92,1.55 18.32,7.60 19.85,12.54 22.51,16.37 26.29,19.10 31.21,20.71">
        <request index="0" response="000000" foes="000000" cont="0"/>
        <request index="1" response="000000" foes="000000" cont="0"/>
        <request index="2" response="000000" foes="000000" cont="0"/>
        <request index="3" response="000000" foes="000000" cont="0"/>
        <request index="4" response="000000" foes="000000" cont="0"/>
        <request index="5" response="000000" foes="000000" cont="0"/>
    </junction>
    <junction id="Node2" type="traffic_light" x="184.66" y="10.53" incLanes="Node2_7_SB_0 Node2_7_SB_1 Node2_7_SB_2 Node2_3_WB_0 Node2_3_WB_1 Node2_3_WB_2 Node2_5_NB_0 Node2_5_NB_1 Node2_5_NB_2 Node1_2_EB_0 Node1_2_EB_1 Node1_2_EB_2" intLanes=":Node2_0_0 :Node2_1_0 :Node2_1_1 :Node2_1_2 :Node2_20_0 :Node2_5_0 :Node2_6_0 :Node2_6_1 :Node2_6_2 :Node2_21_0 :Node2_10_0 :Node2_11_0 :Node2_11_1 :Node2_11_2 :Node2_22_0 :Node2_15_0 :Node2_16_0 :Node2_16_1 :Node2_16_2 :Node2_23_0" shape="175.41,24.60 194.61,24.11 194.99,21.89 195.53,21.11 196.29,20.55 197.29,20.22 198.50,20.11 198.47,0.91 196.11,0.47 195.27,-0.09 194.68,-0.87 194.32,-1.87 194.20,-3.09 175.00,-3.00 174.56,-0.77 174.01,0.01 173.24,0.57 172.24,0.91 171.02,1.03 171.16,20.23 173.47,20.70 174.29,21.31 174.89,22.16 175.26,23.25">
        <request index="0"  response="00000000000111000000" foes="00000000000111000000" cont="0"/>
        <request index="1"  response="11111000001111000000" foes="11111100001111000000" cont="0"/>
        <request index="2"  response="11111000001111000000" foes="11111100001111000000" cont="0"/>
        <request index="3"  response="11111000001111000000" foes="11111100001111000000" cont="0"/>
        <request index="4"  response="11110011101111000000" foes="11110011101111000000" cont="1"/>
        <request index="5"  response="00000000000000000000" foes="00000011100000000000" cont="0"/>
        <request index="6"  response="00000000000000010000" foes="10000111100000011111" cont="0"/>
        <request index="7"  response="00000000000000010000" foes="10000111100000011111" cont="0"/>
        <request index="8"  response="00000100000000010000" foes="10000111100000011111" cont="0"/>
        <request index="9"  response="01110100000000010000" foes="01110111100000011110" cont="1"/>
        <request index="10" response="01110000000000000000" foes="01110000000000000000" cont="0"/>
        <request index="11" response="11110000001111100000" foes="11110000001111110000" cont="0"/>
        <request index="12" response="11110000001111100000" foes="11110000001111110000" cont="0"/>
        <request index="13" response="11110000001111100000" foes="11110000001111110000" cont="0"/>
        <request index="14" response="11110000001111001110" foes="11110000001111001110" cont="1"/>
        <request index="15" response="00000000000000000000" foes="00000000000000001110" cont="0"/>
        <request index="16" response="00000100000000000000" foes="00000111111000011110" cont="0"/>
        <request index="17" response="00000100000000000000" foes="00000111111000011110" cont="0"/>
        <request index="18" response="00000100000000010000" foes="00000111111000011110" cont="0"/>
        <request index="19" response="00000100000111010000" foes="00000111100111011110" cont="1"/>
    </junction>
    <junction id="Node3" type="priority" x="319.54" y="10.30" incLanes="-E5_0 -E5_1 -E5_2 Node2_3_EB_0 Node2_3_EB_1 Node2_3_EB_2" intLanes=":Node3_0_0 :Node3_0_1 :Node3_0_2 :Node3_3_0 :Node3_3_1 :Node3_3_2" shape="329.33,1.12 310.14,0.72 310.17,19.92 315.92,19.38 320.64,17.81 324.35,15.20 327.03,11.55 328.69,6.85">
        <request index="0" response="000000" foes="000000" cont="0"/>
        <request index="1" response="000000" foes="000000" cont="0"/>
        <request index="2" response="000000" foes="000000" cont="0"/>
        <request index="3" response="000000" foes="000000" cont="0"/>
        <request index="4" response="000000" foes="000000" cont="0"/>
        <request index="5" response="000000" foes="000000" cont="0"/>
    </junction>
    <junction id="Node4" type="priority" x="29.71" y="-87.82" incLanes="E7_0 E7_1 E7_2 -E8_0 -E8_1 -E8_2" intLanes=":Node4_0_0 :Node4_0_1 :Node4_0_2 :Node4_3_0 :Node4_3_1 :Node4_3_2" shape="39.08,-78.37 38.78,-97.56 33.13,-96.96 28.48,-95.35 24.84,-92.74 22.19,-89.11 20.54,-84.48 19.89,-78.84">
        <request index="0" response="000000" foes="000000" cont="0"/>
        <request index="1" response="000000" foes="000000" cont="0"/>
        <request index="2" response="000000" foes="000000" cont="0"/>
        <request index="3" response="000000" foes="000000" cont="0"/>
        <request index="4" response="000000" foes="000000" cont="0"/>
        <request index="5" response="000000" foes="000000" cont="0"/>
    </junction>
    <junction id="Node5" type="traffic_light" x="184.19" y="-90.26" incLanes="Node2_5_SB_0 Node2_5_SB_1 Node2_5_SB_2 E6_0 E6_1 E6_2 -E7_0 -E7_1 -E7_2" intLanes=":Node5_0_0 :Node5_0_1 :Node5_2_0 :Node5_2_1 :Node5_4_0 :Node5_5_0 :Node5_5_1 :Node5_5_2 :Node5_8_0 :Node5_8_1 :Node5_8_2 :Node5_13_0 :Node5_13_1" shape="174.65,-76.51 193.85,-76.60 194.29,-78.82 194.84,-79.60 195.61,-80.16 196.61,-80.49 197.84,-80.59 197.93,-99.79 170.33,-99.64 170.64,-80.44 172.86,-80.04 173.64,-79.49 174.20,-78.72 174.54,-77.73">
        <request index="0"  response="0000011100000" foes="0000011100000" cont="0"/>
        <request index="1"  response="0000011100000" foes="0000011100000" cont="0"/>
        <request index="2"  response="1111111100000" foes="1111111100000" cont="0"/>
        <request index="3"  response="1111111100000" foes="1111111100000" cont="0"/>
        <request index="4"  response="0000000000000" foes="0000000000000" cont="0"/>
        <request index="5"  response="0000000000000" foes="1100000001111" cont="0"/>
        <request index="6"  response="0000000000000" foes="1100000001111" cont="0"/>
        <request index="7"  response="0000000000000" foes="1100000001111" cont="0"/>
        <request index="8"  response="0000000000000" foes="0000000001100" cont="0"/>
        <request index="9"  response="0000000000000" foes="0000000001100" cont="0"/>
        <request index="10" response="0000000000000" foes="0000000001100" cont="0"/>
        <request index="11" response="0000011100000" foes="0000011101100" cont="1"/>
        <request index="12" response="0000011100000" foes="0000011101100" cont="1"/>
    </junction>
    <junction id="Node6" type="priority" x="321.63" y="-89.56" incLanes="-E6_0 -E6_1 -E6_2 E5_0 E5_1 E5_2" intLanes=":Node6_0_0 :Node6_0_1 :Node6_0_2 :Node6_3_0 :Node6_3_1 :Node6_3_2" shape="311.93,-99.21 311.83,-80.01 331.02,-79.61 330.61,-85.57 329.08,-90.45 326.45,-94.26 322.72,-96.99 317.87,-98.64">
        <request index="0" response="000000" foes="000000" cont="0"/>
        <request index="1" response="000000" foes="000000" cont="0"/>
        <request index="2" response="000000" foes="000000" cont="0"/>
        <request index="3" response="000000" foes="000000" cont="0"/>
        <request index="4" response="000000" foes="000000" cont="0"/>
        <request index="5" response="000000" foes="000000" cont="0"/>
    </junction>
    <junction id="Node7" type="dead_end" x="186.63" y="88.59" incLanes="Node7_7_NB_0 Node7_7_NB_1 Node7_7_NB_2" intLanes="" shape="186.63,88.59 196.23,88.35 186.63,88.59"/>

    <junction id=":Node2_20_0" type="internal" x="184.04" y="19.06" incLanes=":Node2_4_0 Node2_5_NB_0 Node2_5_NB_1 Node2_5_NB_2" intLanes=":Node2_6_0 :Node2_6_1 :Node2_6_2 :Node2_9_0 :Node2_10_0 :Node2_11_0 :Node2_11_1 :Node2_11_2 :Node2_16_0 :Node2_16_1 :Node2_16_2 :Node2_19_0"/>
    <junction id=":Node2_21_0" type="internal" x="193.54" y="11.42" incLanes=":Node2_9_0 Node1_2_EB_0 Node1_2_EB_1 Node1_2_EB_2" intLanes=":Node2_1_0 :Node2_1_1 :Node2_1_2 :Node2_4_0 :Node2_11_0 :Node2_11_1 :Node2_11_2 :Node2_14_0 :Node2_15_0 :Node2_16_0 :Node2_16_1 :Node2_16_2"/>
    <junction id=":Node2_22_0" type="internal" x="185.56" y="1.59" incLanes=":Node2_14_0 Node2_7_SB_0 Node2_7_SB_1 Node2_7_SB_2" intLanes=":Node2_0_0 :Node2_1_0 :Node2_1_1 :Node2_1_2 :Node2_6_0 :Node2_6_1 :Node2_6_2 :Node2_9_0 :Node2_16_0 :Node2_16_1 :Node2_16_2 :Node2_19_0"/>
    <junction id=":Node2_23_0" type="internal" x="176.07" y="9.72" incLanes=":Node2_19_0 Node2_3_WB_0 Node2_3_WB_1 Node2_3_WB_2" intLanes=":Node2_1_0 :Node2_1_1 :Node2_1_2 :Node2_4_0 :Node2_5_0 :Node2_6_0 :Node2_6_1 :Node2_6_2 :Node2_11_0 :Node2_11_1 :Node2_11_2 :Node2_14_0"/>
    <junction id=":Node5_13_0" type="internal" x="176.99" y="-90.97" incLanes=":Node5_11_0 E6_0 E6_1 E6_2" intLanes=":Node5_2_0 :Node5_2_1 :Node5_5_0 :Node5_5_1 :Node5_5_2"/>
    <junction id=":Node5_13_1" type="internal" x="175.81" y="-90.96" incLanes=":Node5_11_1 E6_0 E6_1 E6_2" intLanes=":Node5_2_0 :Node5_2_1 :Node5_5_0 :Node5_5_1 :Node5_5_2"/>

    <connection from="-E5" to="Node2_3_WB" fromLane="0" toLane="0" via=":Node3_0_0" dir="l" state="M"/>
    <connection from="-E5" to="Node2_3_WB" fromLane="1" toLane="1" via=":Node3_0_1" dir="l" state="M"/>
    <connection from="-E5" to="Node2_3_WB" fromLane="2" toLane="2" via=":Node3_0_2" dir="l" state="M"/>
    <connection from="-E6" to="-E5" fromLane="0" toLane="0" via=":Node6_0_0" dir="l" state="M"/>
    <connection from="-E6" to="-E5" fromLane="1" toLane="1" via=":Node6_0_1" dir="l" state="M"/>
    <connection from="-E6" to="-E5" fromLane="2" toLane="2" via=":Node6_0_2" dir="l" state="M"/>
    <connection from="-E7" to="-E6" fromLane="0" toLane="0" via=":Node5_8_0" tl="Node5" linkIndex="8" dir="s" state="O"/>
    <connection from="-E7" to="-E6" fromLane="1" toLane="1" via=":Node5_8_1" tl="Node5" linkIndex="9" dir="s" state="O"/>
    <connection from="-E7" to="-E6" fromLane="2" toLane="2" via=":Node5_8_2" tl="Node5" linkIndex="10" dir="s" state="O"/>
    <connection from="-E7" to="Node2_5_NB" fromLane="2" toLane="1" via=":Node5_11_0" tl="Node5" linkIndex="11" dir="l" state="o"/>
    <connection from="-E7" to="Node2_5_NB" fromLane="2" toLane="2" via=":Node5_11_1" tl="Node5" linkIndex="12" dir="l" state="o"/>
    <connection from="-E8" to="-E7" fromLane="0" toLane="0" via=":Node4_3_0" dir="l" state="M"/>
    <connection from="-E8" to="-E7" fromLane="1" toLane="1" via=":Node4_3_1" dir="l" state="M"/>
    <connection from="-E8" to="-E7" fromLane="2" toLane="2" via=":Node4_3_2" dir="l" state="M"/>
    <connection from="E5" to="E6" fromLane="0" toLane="0" via=":Node6_3_0" dir="r" state="M"/>
    <connection from="E5" to="E6" fromLane="1" toLane="1" via=":Node6_3_1" dir="r" state="M"/>
    <connection from="E5" to="E6" fromLane="2" toLane="2" via=":Node6_3_2" dir="r" state="M"/>
    <connection from="E6" to="Node2_5_NB" fromLane="0" toLane="0" via=":Node5_4_0" tl="Node5" linkIndex="4" dir="r" state="O"/>
    <connection from="E6" to="E7" fromLane="0" toLane="0" via=":Node5_5_0" tl="Node5" linkIndex="5" dir="s" state="O"/>
    <connection from="E6" to="E7" fromLane="1" toLane="1" via=":Node5_5_1" tl="Node5" linkIndex="6" dir="s" state="O"/>
    <connection from="E6" to="E7" fromLane="2" toLane="2" via=":Node5_5_2" tl="Node5" linkIndex="7" dir="s" state="O"/>
    <connection from="E7" to="E8" fromLane="0" toLane="0" via=":Node4_0_0" dir="r" state="M"/>
    <connection from="E7" to="E8" fromLane="1" toLane="1" via=":Node4_0_1" dir="r" state="M"/>
    <connection from="E7" to="E8" fromLane="2" toLane="2" via=":Node4_0_2" dir="r" state="M"/>