<edges>
    <edge id="N2C" from="N" to="C" priority="1" numLanes="2" speed="13.89" sidewalkWidth="2.0"/>
    <edge id="C2S" from="C" to="S" priority="1" numLanes="2" speed="13.89" sidewalkWidth="2.0"/>
    <edge id="E2C" from="E" to="C" priority="1" numLanes="2" speed="13.89" sidewalkWidth="2.0"/>
    <edge id="C2W" from="C" to="W" priority="1" numLanes="2" speed="13.89" sidewalkWidth="2.0"/>
</edges>