<?xml version="1.0" encoding="UTF-8"?>

<!-- generated on 2025-12-17T18:09:52.064588+00:00 by Eclipse SUMO netconvert 1.25.0
<netconvertConfiguration xmlns:xsi="http://www.w3.org/2001/XMLSchema-instance" xsi:noNamespaceSchemaLocation="http://sumo.dlr.de/xsd/netconvertConfiguration.xsd">

    <input>
        <node-files value="sumo_configs\nodes.nod.xml"/>
        <edge-files value="sumo_configs\edges.edg.xml"/>
    </input>

    <output>
        <output-file value="sumo_configs\network.net.xml"/>
    </output>

</netconvertConfiguration>
-->

<net version="1.20" junctionCornerDetail="5" limitTurnSpeed="5.50" xmlns:xsi="http://www.w3.org/2001/XMLSchema-instance" xsi:noNamespaceSchemaLocation="http://sumo.dlr.de/xsd/net_file.xsd">

    <location netOffset="100.00,100.00" convBoundary="0.00,0.00,200.00,200.00" origBoundary="-100.00,-100.00,100.00,100.00" projParameter="!"/>

    <edge id=":center_0" function="internal">
        <lane id=":center_0_0" index="0" speed="6.51" length="9.03" shape="95.20,110.40 94.85,107.95 93.80,106.20 92.05,105.15 89.60,104.80"/>
    </edge>
    <edge id=":center_1" function="internal">
        <lane id=":center_1_0" index="0" speed="13.89" length="14.40" shape="95.20,110.40 95.20,96.00"/>
        <lane id=":center_1_1" index="1" speed="13.89" length="14.40" shape="98.40,110.40 98.40,96.00"/>
    </edge>
    <edge id=":center_3" function="internal">
        <lane id=":center_3_0" index="0" speed="13.89" length="14.40" shape="104.00,104.80 89.60,104.80"/>
        <lane id=":center_3_1" index="1" speed="13.89" length="14.40" shape="104.00,101.60 89.60,101.60"/>
    </edge>
    <edge id=":center_5" function="internal">
        <lane id=":center_5_0" index="0" speed="6.51" length="9.03" shape="104.00,101.60 101.55,101.25 99.80,100.20 98.75,98.45 98.40,96.00"/>
    </edge>

    <edge id="C2S" from="center" to="S" priority="1">
        <lane id="C2S_0" index="0" speed="13.89" length="96.00" shape="95.20,96.00 95.20,0.00"/>
        <lane id="C2S_1" index="1" speed="13.89" length="96.00" shape="98.40,96.00 98.40,0.00"/>
    </edge>
    <edge id="C2W" from="center" to="W" priority="1">
        <lane id="C2W_0" index="0" speed="13.89" length="89.60" shape="89.60,104.80 0.00,104.80"/>
        <lane id="C2W_1" index="1" speed="13.89" length="89.60" shape="89.60,101.60 0.00,101.60"/>
    </edge>
    <edge id="E2C" from="E" to="center" priority="1">
        <lane id="E2C_0" index="0" speed="13.89" length="96.00" shape="200.00,104.80 104.00,104.80"/>
        <lane id="E2C_1" index="1" speed="13.89" length="96.00" shape="200.00,101.60 104.00,101.60"/>
    </edge>
    <edge id="N2C" from="N" to="center" priority="1">
        <lane id="N2C_0" index="0" speed="13.89" length="89.60" shape="95.20,200.00 95.20,110.40"/>
        <lane id="N2C_1" index="1" speed="13.89" length="89.60" shape="98.40,200.00 98.40,110.40"/>
    </edge>

    <tlLogic id="center" type="static" programID="0" offset="0">
        <phase duration="42" state="GGGrrr"/>
        <phase duration="3"  state="yyyrrr"/>
        <phase duration="42" state="rrrGGG"/>
        <phase duration="3"  state="rrryyy"/>
    </tlLogic>

    <junction id="E" type="dead_end" x="200.00" y="100.00" incLanes="" intLanes="" shape="200.00,100.00 200.00,106.40"/>
    <junction id="N" type="dead_end" x="100.00" y="200.00" incLanes="" intLanes="" shape="100.00,200.00 93.60,200.00"/>
    <junction id="S" type="dead_end" x="100.00" y="0.00" incLanes="C2S_0 C2S_1" intLanes="" shape="93.60,0.00 100.00,0.00"/>
    <junction id="W" type="dead_end" x="0.00" y="100.00" incLanes="C2W_0 C2W_1" intLanes="" shape="0.00,106.40 0.00,100.00"/>
    <junction id="center" type="traffic_light" x="100.00" y="100.00" incLanes="N2C_0 N2C_1 E2C_0 E2C_1" intLanes=":center_0_0 :center_1_0 :center_1_1 :center_3_0 :center_3_1 :center_5_0" shape="93.60,110.40 100.00,110.40 100.44,108.18 101.00,107.40 101.78,106.84 102.78,106.51 104.00,106.40 104.00,100.00 101.78,99.56 101.00,99.00 100.44,98.22 100.11,97.22 100.00,96.00 93.60,96.00 93.16,98.22 92.60,99.00 91.82,99.56 90.82,99.89 89.60,100.00 89.60,106.40 91.82,106.84 92.60,107.40 93.16,108.18 93.49,109.18">
        <request index="0" response="000000" foes="011000" cont="0"/>
        <request index="1" response="000000" foes="111000" cont="0"/>
        <request index="2" response="000000" foes="111000" cont="0"/>
        <request index="3" response="000111" foes="000111" cont="0"/>
        <request index="4" response="000111" foes="000111" cont="0"/>
        <request index="5" response="000110" foes="000110" cont="0"/>
    </junction>

    <connection from="E2C" to="C2W" fromLane="0" toLane="0" via=":center_3_0" tl="center" linkIndex="3" dir="s" state="o"/>
    <connection from="E2C" to="C2W" fromLane="1" toLane="1" via=":center_3_1" tl="center" linkIndex="4" dir="s" state="o"/>
    <connection from="E2C" to="C2S" fromLane="1" toLane="1" via=":center_5_0" tl="center" linkIndex="5" dir="l" state="o"/>
    <connection from="N2C" to="C2W" fromLane="0" toLane="0" via=":center_0_0" tl="center" linkIndex="0" dir="r" state="O"/>
    <connection from="N2C" to="C2S" fromLane="0" toLane="0" via=":center_1_0" tl="center" linkIndex="1" dir="s" state="O"/>
    <connection from="N2C" to="C2S" fromLane="1" toLane="1" via=":center_1_1" tl="center" linkIndex="2" dir="s" state="O"/>

    <connection from=":center_0" to="C2W" fromLane="0" toLane="0" dir="r" state="M"/>
    <connection from=":center_1" to="C2S" fromLane="0" toLane="0" dir="s" state="M"/>
    <connection from=":center_1" to="C2S" fromLane="1" toLane="1" dir="s" state="M"/>
    <connection from=":center_3" to="C2W" fromLane="0" toLane="0" dir="s" state="M"/>
    <connection from=":center_3" to="C2W" fromLane="1" toLane="1" dir="s" state="M"/>
    <connection from=":center_5" to="C2S" fromLane="0" toLane="1" dir="l" state="M"/>

</net>
