<routes>
    <vType id="car" accel="1.0" decel="4.5" sigma="0.5" length="5" minGap="2.5" maxSpeed="13.89" guiShape="passenger"/>
    <vType id="emergency" accel="2.5" decel="5.0" sigma="0.5" length="5" minGap="2.5" maxSpeed="18.0" guiShape="emergency" color="red"/>
    <vType id="pedestrian" vClass="pedestrian" 
           width="2.0" length="1.5" height="2.5" 
           color="yellow" guiShape="person"/>

    <flow id="fN" type="car" begin="0" end="3600" probability="0.1" from="N2C" to="C2S"/>
    <flow id="fE" type="car" begin="0" end="3600" probability="0.1" from="E2C" to="C2W"/>

    <personFlow id="p1" begin="0" end="3600" probability="0.2">
        <walk from="N2C" to="C2S"/>
    </personFlow>

    <vehicle id="amb_1" type="emergency" depart="50" departLane="1">
        <route edges="N2C C2S"/>
    </vehicle>
</routes>