<routes>
    <vType id="car" accel="1.0" decel="4.5" length="5" maxSpeed="15.0" guiShape="passenger"/>
    <vType id="emergency" accel="3.0" decel="5.0" length="5" maxSpeed="25.0" guiShape="emergency" color="red"/>
    <vType id="pedestrian" vClass="pedestrian" color="yellow" guiShape="person"/>

    <flow id="fN" type="car" begin="0" end="3600" probability="0.2" from="N2C" to="C2S"/>
    <flow id="fE" type="car" begin="0" end="3600" probability="0.1" from="E2C" to="C2W"/>

    <personFlow id="p1" begin="0" end="3600" probability="0.05">
        <walk from="N2C" to="C2S"/>
    </personFlow>

    <vehicle id="amb_1" type="emergency" depart="200" departLane="1">
        <route edges="E2C C2W"/>
    </vehicle>
</routes>